<?xml version="1.0" encoding="UTF-8"?>

<!-- generated on Wed 19 Feb 2020 10:24:25 GMT by Eclipse SUMO netedit Version 1.4.0
<configuration xmlns:xsi="http://www.w3.org/2001/XMLSchema-instance" xsi:noNamespaceSchemaLocation="http://sumo.dlr.de/xsd/netconvertConfiguration.xsd">

    <input>
        <sumo-net-file value="44cbr.net.xml"/>
    </input>

    <output>
        <output-file value="44cbr.net.xml"/>
    </output>

    <processing>
        <geometry.min-radius.fix.railways value="false"/>
        <geometry.max-grade.fix value="false"/>
        <offset.disable-normalization value="true"/>
        <lefthand value="false"/>
    </processing>

    <junctions>
        <no-internal-links value="true"/>
        <no-turnarounds value="true"/>
        <junctions.corner-detail value="5"/>
        <junctions.limit-turn-speed value="5.5"/>
        <rectangular-lane-cut value="false"/>
    </junctions>

    <pedestrian>
        <walkingareas value="false"/>
    </pedestrian>

    <report>
        <aggregate-warnings value="5"/>
    </report>

</configuration>
-->

<net version="1.3" junctionCornerDetail="5" limitTurnSpeed="5.50" xmlns:xsi="http://www.w3.org/2001/XMLSchema-instance" xsi:noNamespaceSchemaLocation="http://sumo.dlr.de/xsd/net_file.xsd">

    <location netOffset="0.00,0.00" convBoundary="0.00,-25.00,850.00,25.00" origBoundary="-10000000000.000000,-10000000000.000000,10000000000.000000,10000000000.000000" projParameter="+proj=tmerc +lat_0=48.78407 +lon_0=11.47258 +ellps=WGS84 +datum=WGS84 +units=m +no_defs"/>

    <edge id="LS1LS2" from="LS1" to="LS2" priority="-1" length="0.10">
        <lane id="LS1LS2_0" index="0" speed="19.44" length="0.10" width="4.00" shape="20.76,29.24 -4.24,4.24"/>
        <lane id="LS1LS2_1" index="1" speed="19.44" length="0.10" width="4.00" shape="23.59,26.41 -1.41,1.41"/>
    </edge>
    <edge id="LS2LS3" from="LS2" to="LS3" priority="-1" length="0.10">
        <lane id="LS2LS3_0" index="0" speed="19.44" length="0.10" width="4.00" shape="-4.24,-4.24 20.76,-29.24"/>
        <lane id="LS2LS3_1" index="1" speed="19.44" length="0.10" width="4.00" shape="-1.41,-1.41 23.59,-26.41"/>
    </edge>
    <edge id="LS3LS" from="LS3" to="LS" priority="-1" length="0.10">
        <lane id="LS3LS_0" index="0" speed="19.44" length="0.10" width="4.00" shape="29.24,-29.24 50.73,-7.76"/>
        <lane id="LS3LS_1" index="1" speed="19.44" length="0.10" width="4.00" shape="26.41,-26.41 47.90,-4.93"/>
    </edge>
    <edge id="LSLS1" from="LS" to="LS1" priority="-1" length="0.10">
        <lane id="LSLS1_0" index="0" speed="19.44" length="0.10" width="4.00" shape="50.73,7.76 29.24,29.24"/>
        <lane id="LSLS1_1" index="1" speed="19.44" length="0.10" width="4.00" shape="47.90,4.93 26.41,26.41"/>
    </edge>
    <edge id="LSRE" from="LS" to="RE" priority="-1">
        <lane id="LSRE_0" index="0" speed="19.44" length="750.00" width="4.00" shape="54.97,-6.00 795.03,-6.00"/>
        <lane id="LSRE_1" index="1" speed="19.44" length="750.00" width="4.00" shape="54.97,-2.00 795.03,-2.00"/>
    </edge>
    <edge id="RE1RE2" from="RE1" to="RE2" priority="-1" length="0.10">
        <lane id="RE1RE2_0" index="0" speed="19.44" length="0.10" width="4.00" shape="829.24,-29.24 854.24,-4.24"/>
        <lane id="RE1RE2_1" index="1" speed="19.44" length="0.10" width="4.00" shape="826.41,-26.41 851.41,-1.41"/>
    </edge>
    <edge id="RE2RE3" from="RE2" to="RE3" priority="-1" length="0.10">
        <lane id="RE2RE3_0" index="0" speed="19.44" length="0.10" width="4.00" shape="854.24,4.24 829.24,29.24"/>
        <lane id="RE2RE3_1" index="1" speed="19.44" length="0.10" width="4.00" shape="851.41,1.41 826.41,26.41"/>
    </edge>
    <edge id="RE3RE" from="RE3" to="RE" priority="-1" length="0.10">
        <lane id="RE3RE_0" index="0" speed="19.44" length="0.10" width="4.00" shape="820.76,29.24 799.27,7.76"/>
        <lane id="RE3RE_1" index="1" speed="19.44" length="0.10" width="4.00" shape="823.59,26.41 802.10,4.93"/>
    </edge>
    <edge id="RELS" from="RE" to="LS" priority="-1">
        <lane id="RELS_0" index="0" speed="19.44" length="750.00" width="4.00" shape="795.03,6.00 54.97,6.00"/>
        <lane id="RELS_1" index="1" speed="19.44" length="750.00" width="4.00" shape="795.03,2.00 54.97,2.00"/>
    </edge>
    <edge id="RERE1" from="RE" to="RE1" priority="-1" length="0.10">
        <lane id="RERE1_0" index="0" speed="19.44" length="0.10" width="4.00" shape="799.27,-7.76 820.76,-29.24"/>
        <lane id="RERE1_1" index="1" speed="19.44" length="0.10" width="4.00" shape="802.10,-4.93 823.59,-26.41"/>
    </edge>

    <junction id="LS" type="priority" x="50.00" y="0.00" incLanes="RELS_0 RELS_1 LS3LS_0 LS3LS_1" intLanes="" shape="54.97,8.00 54.97,-8.00 53.80,-8.06 53.39,-8.18 53.02,-8.39 52.62,-8.71 52.14,-9.17 46.49,-3.51 48.05,-1.17 48.24,-0.00 48.05,1.17 47.46,2.34 46.49,3.51 52.14,9.17 52.98,8.52 53.44,8.29 53.92,8.13 54.43,8.03">
        <request index="0" response="0000" foes="0000"/>
        <request index="1" response="0000" foes="0000"/>
        <request index="2" response="0000" foes="0000"/>
        <request index="3" response="0000" foes="0000"/>
    </junction>
    <junction id="LS1" type="priority" x="25.00" y="25.00" incLanes="LSLS1_0 LSLS1_1" intLanes="" shape="30.66,30.66 25.00,25.00 19.34,30.66 21.23,32.23 23.11,33.17 25.00,33.49 26.89,33.17 28.77,32.23">
        <request index="0" response="00" foes="00"/>
        <request index="1" response="00" foes="00"/>
    </junction>
    <junction id="LS2" type="priority" x="0.00" y="0.00" incLanes="LS1LS2_0 LS1LS2_1" intLanes="" shape="-5.66,5.66 0.00,0.00 -5.66,-5.66 -7.23,-3.77 -8.17,-1.89 -8.49,0.00 -8.17,1.89 -7.23,3.77">
        <request index="0" response="00" foes="00"/>
        <request index="1" response="00" foes="00"/>
    </junction>
    <junction id="LS3" type="priority" x="25.00" y="-25.00" incLanes="LS2LS3_0 LS2LS3_1" intLanes="" shape="25.00,-25.00 30.66,-30.66 28.77,-32.23 26.89,-33.17 25.00,-33.49 23.11,-33.17 21.23,-32.23 19.34,-30.66">
        <request index="0" response="00" foes="00"/>
        <request index="1" response="00" foes="00"/>
    </junction>
    <junction id="RE" type="priority" x="800.00" y="0.00" incLanes="RE3RE_0 RE3RE_1 LSRE_0 LSRE_1" intLanes="" shape="797.86,9.17 803.51,3.51 801.95,1.17 801.76,0.00 801.95,-1.17 802.54,-2.34 803.51,-3.51 797.86,-9.17 796.98,-8.39 796.61,-8.18 796.20,-8.06 795.70,-8.01 795.03,-8.00 795.03,8.00 796.20,8.06 796.61,8.18 796.98,8.39 797.38,8.71">
        <request index="0" response="0000" foes="0000"/>
        <request index="1" response="0000" foes="0000"/>
        <request index="2" response="0000" foes="0000"/>
        <request index="3" response="0000" foes="0000"/>
    </junction>
    <junction id="RE1" type="priority" x="825.00" y="-25.00" incLanes="RERE1_0 RERE1_1" intLanes="" shape="825.00,-25.00 830.66,-30.66 828.77,-32.23 826.89,-33.17 825.00,-33.49 823.11,-33.17 821.23,-32.23 819.34,-30.66">
        <request index="0" response="00" foes="00"/>
        <request index="1" response="00" foes="00"/>
    </junction>
    <junction id="RE2" type="priority" x="850.00" y="0.00" incLanes="RE1RE2_0 RE1RE2_1" intLanes="" shape="855.66,-5.66 850.00,0.00 855.66,5.66 857.23,3.77 858.17,1.89 858.49,0.00 858.17,-1.89 857.23,-3.77">
        <request index="0" response="00" foes="00"/>
        <request index="1" response="00" foes="00"/>
    </junction>
    <junction id="RE3" type="priority" x="825.00" y="25.00" incLanes="RE2RE3_0 RE2RE3_1" intLanes="" shape="830.66,30.66 825.00,25.00 819.34,30.66 821.23,32.23 823.11,33.17 825.00,33.49 826.89,33.17 828.77,32.23">
        <request index="0" response="00" foes="00"/>
        <request index="1" response="00" foes="00"/>
    </junction>

    <connection from="LS1LS2" to="LS2LS3" fromLane="0" toLane="0" dir="l" state="M"/>
    <connection from="LS1LS2" to="LS2LS3" fromLane="1" toLane="1" dir="l" state="M"/>
    <connection from="LS2LS3" to="LS3LS" fromLane="0" toLane="0" dir="l" state="M"/>
    <connection from="LS2LS3" to="LS3LS" fromLane="1" toLane="1" dir="l" state="M"/>
    <connection from="LS3LS" to="LSRE" fromLane="0" toLane="0" dir="r" state="M"/>
    <connection from="LS3LS" to="LSRE" fromLane="1" toLane="1" dir="r" state="M"/>
    <connection from="LSLS1" to="LS1LS2" fromLane="0" toLane="0" dir="l" state="M"/>
    <connection from="LSLS1" to="LS1LS2" fromLane="1" toLane="1" dir="l" state="M"/>
    <connection from="LSRE" to="RERE1" fromLane="0" toLane="0" dir="r" state="M"/>
    <connection from="LSRE" to="RERE1" fromLane="1" toLane="1" dir="r" state="M"/>
    <connection from="RE1RE2" to="RE2RE3" fromLane="0" toLane="0" dir="l" state="M"/>
    <connection from="RE1RE2" to="RE2RE3" fromLane="1" toLane="1" dir="l" state="M"/>
    <connection from="RE2RE3" to="RE3RE" fromLane="0" toLane="0" dir="l" state="M"/>
    <connection from="RE2RE3" to="RE3RE" fromLane="1" toLane="1" dir="l" state="M"/>
    <connection from="RE3RE" to="RELS" fromLane="0" toLane="0" dir="r" state="M"/>
    <connection from="RE3RE" to="RELS" fromLane="1" toLane="1" dir="r" state="M"/>
    <connection from="RELS" to="LSLS1" fromLane="0" toLane="0" dir="r" state="M"/>
    <connection from="RELS" to="LSLS1" fromLane="1" toLane="1" dir="r" state="M"/>
    <connection from="RERE1" to="RE1RE2" fromLane="0" toLane="0" dir="l" state="M"/>
    <connection from="RERE1" to="RE1RE2" fromLane="1" toLane="1" dir="l" state="M"/>

</net>
