[General]
cmdenv-express-mode = true
cmdenv-autoflush = true
network = artery.lte.Mode4World
debug-on-errors = false
print-undisposed = false
sim-time-limit = 210s
repeat = 1
**.statistic-recording = true
**.scalar-recording = true
**.vector-recording = true
output-vector-file = "/home/brian/git_repos/results-analysis/data/omnet/cv2x/${configname}/${runid}.vec"
output-scalar-file = "/home/brian/git_repos/results-analysis/data/omnet/cv2x/${configname}/${runid}.sca"
**.coreDebug = false
**.routingRecorder.enabled = false
*.playgroundSizeX = 20000m
*.playgroundSizeY = 20000m
*.playgroundSizeZ = 50m
*.traci.core.version = -1
*.traci.launcher.typename = "PosixLauncher"
*.traci.launcher.sumocfg = "highway/fast/fast.sumo.cfg"
*.traci.core.startTime = 200s
num-rngs = 2
*.traci.mapper.rng-0 = 1
**.deployer.positionUpdateInterval = 0.001s
**.channelControl.pMax = 10W
**.channelControl.alpha = 1.0
**.channelControl.carrierFrequency = 6000e+6Hz
**.lteNic.phy.channelModel = xmldoc("config_channel.xml")
**.feedbackComputation = xmldoc("config_channel.xml")
**.lteNic.mac.txConfig = xmldoc("sidelink_configuration.xml")
**.rbAllocationType = "localized"
**.feedbackType = "ALLBANDS"
**.feedbackGeneratorType = "IDEAL"
**.maxHarqRtx = 0
**.numUe = ${numUEs=10}
**.deployer.ruRange = 50
**.deployer.ruTxPower = "50,50,50;"
**.deployer.antennaCws = "2;" # !!MACRO + RUS (numRus + 1)
**.deployer.numRbDl = 51
**.deployer.numRbUl = 48
**.numBands = 48
**.fbDelay = 1
*.node[*].wlan[*].typename = "VanetNic"
*.node[*].wlan[*].radio.channelNumber = 180
*.node[*].wlan[*].radio.carrierFrequency = 5.9 GHz
*.node[*].wlan[*].radio.transmitter.power = 200 mW
*.node[*].middleware.updateInterval = 0.1 s
*.node[*].middleware.datetime = "2018-01-17 13:44:00"
*.node[*].middleware.services = xmldoc("services.xml")
*.node[*].middleware.CaService.withDccRestriction = false
*.node[*].middleware.CaService.fixedRate = true
*.node[*].middleware.CaService.minInterval = 0.1 s
*.node[*].middleware.CaService.maxInterval = 0.1 s
**.macDelayDl.statistic-recording = false
**.macThroughputDl.statistic-recording = false
**.macDelayUl.statistic-recording = false
**.macThroughputUl.statistic-recording = false
**.macDelayD2D.statistic-recording = false
**.macThroughputD2D.statistic-recording = false
**.macCellThroughputUl.statistic-recording = false
**.macCellThroughputDl.statistic-recording = false
**.macCellThroughputD2D.statistic-recording = false
**.macCellPacketLossDl.statistic-recording = false
**.macCellPacketLossUl.statistic-recording = false
**.macCellPacketLossD2D.statistic-recording = false
**.macPacketLossUl.statistic-recording = false
**.macPacketLossDl.statistic-recording = false
**.macPacketLossD2D.statistic-recording = false
**.macBufferOverFlowDl.statistic-recording = false
**.macBufferOverFlowUl.statistic-recording = false
**.macBufferOverFlowD2D.statistic-recording = false
**.harqErrorRateUl.statistic-recording = false
**.harqErrorRateDl.statistic-recording = false
**.harqErrorRateD2D.statistic-recording = false
**.harqErrorRate_1st_Ul.statistic-recording = false
**.harqErrorRate_1st_Dl.statistic-recording = false
**.harqErrorRate_1st_D2D.statistic-recording = false
**.harqErrorRate_2nd_Ul.statistic-recording = false
**.harqErrorRate_2nd_D2D.statistic-recording = false
**.harqErrorRate_3rd_Ul.statistic-recording = false
**.harqErrorRate_3rd_Dl.statistic-recording = false
**.harqErrorRate_3rd_D2D.statistic-recording = false
**.harqErrorRate_4th_Ul.statistic-recording = false
**.harqErrorRate_4th_Dl.statistic-recording = false
**.harqErrorRate_4th_D2D.statistic-recording = false
**.receivedPacketFromUpperLayer.statistic-recording = false
**.receivedPacketFromLowerLayer.statistic-recording = false
**.sentPacketToUpperLayer.statistic-recording = false
**.sentPacketToLowerLayer.statistic-recording = false
**.measuredItbs.statistic-recording = false
**.pdcpdrop0.statistic-recording = false
**.pdcpdrop1.statistic-recording = false
**.pdcpdrop2.statistic-recording = false
**.pdcpdrop3.statistic-recording = false
**.averageCqiD2D.statistic-recording = false
**.averageCqiDl.statistic-recording = false
**.averageCqiUl.statistic-recording = false

[Config Base]
*.node[*].d2dCapable = true
*.node[*].mode4D2D = true
**.amcMode = "D2D"
*.node[*].nicType="LteNicVUeMode4"
*.node[*].lteNic.d2dCapable=true
*.node[*].lteNic.pdcpRrc.ipBased = false
*.node[*].lteNic.rlc.ipBased = false
*.node[*].lteNic.mac.subchannelSize = 16
*.node[*].lteNic.mac.numSubchannels = 3
*.node[*].lteNic.mac.probResourceKeep = 0.4
*.node[*].lteNic.phy.subchannelSize = 16
*.node[*].lteNic.phy.numSubchannels = 3
*.node[*].lteNic.phy.selectionWindowStartingSubframe = 1
*.node[*].lteNic.phy.adjacencyPscchPssch = true
*.node[*].lteNic.phy.pStep = 100
*.node[*].ueTxPower = 23
**.usePreconfiguredTxParams = true
*.node[*].application.typename = "artery.lte.Mode4Application"
*.node[*].application.middleware.updateInterval = 0.1s
*.node[*].application.middleware.datetime = "2013-06-01 12:35:00"
*.node[*].application.middleware.services = xmldoc("services.xml")

[Config adjacency]
*.node[*].d2dCapable = true
*.node[*].mode4D2D = true
**.amcMode = "D2D"
*.node[*].nicType = "LteNicVUeMode4"
*.node[*].lteNic.d2dCapable = true
*.node[*].lteNic.pdcpRrc.ipBased = false
*.node[*].lteNic.rlc.ipBased = false
*.node[*].lteNic.mac.subchannelSize = 16
*.node[*].lteNic.mac.numSubchannels = 3
*.node[*].lteNic.mac.probResourceKeep = 0.4
*.node[*].lteNic.mac.resourceReservationInterval = 1
*.node[*].lteNic.mac.maximumLatency = 100
*.node[*].lteNic.mac.minSubchannelNumberPssch = 1
*.node[*].lteNic.mac.maxSubchannelNumberPssch = 10
*.node[*].lteNic.mac.minMcsPssch = 1
*.node[*].lteNic.mac.maxMcsPssch = 28
*.node[*].lteNic.mac.allowedRetxNumberPssch = 0
*.node[*].lteNic.mac.reselectAfter = 1
*.node[*].lteNic.mac.useCbr = false
*.node[*].lteNic.phy.subchannelSize = 16
*.node[*].lteNic.phy.numSubchannels = 3
*.node[*].lteNic.phy.selectionWindowStartingSubframe = 1
*.node[*].lteNic.phy.adjacencyPscchPssch = False
*.node[*].lteNic.phy.pStep = 100
*.node[*].ueTxPower = 23
**.usePreconfiguredTxParams = true
*.node[*].application.typename = "artery.lte.Mode4Application"
*.node[*].application.middleware.updateInterval = 0.1s
*.node[*].application.middleware.datetime = "2013-06-01 12:35:00"
*.node[*].application.middleware.services = xmldoc("services.xml")

[Config probKeep]
*.node[*].d2dCapable = true
*.node[*].mode4D2D = true
**.amcMode = "D2D"
*.node[*].nicType = "LteNicVUeMode4"
*.node[*].lteNic.d2dCapable = true
*.node[*].lteNic.pdcpRrc.ipBased = false
*.node[*].lteNic.rlc.ipBased = false
*.node[*].ueTxPower = 23
*.node[*].lteNic.phy.subchannelSize = 16
*.node[*].lteNic.phy.numSubchannels = 3
*.node[*].lteNic.mac.subchannelSize = 16
*.node[*].lteNic.mac.numSubchannels = 3
*.node[*].lteNic.mac.probResourceKeep = 0.8
**.usePreconfiguredTxParams = true
*.node[*].application.typename = "artery.lte.Mode4Application"
*.node[*].application.middleware.updateInterval = 0.1s
*.node[*].application.middleware.datetime = "2013-06-01 12:35:00"
*.node[*].application.middleware.services = xmldoc("services.xml")

[Config sensingWindow]
*.node[*].d2dCapable = true
*.node[*].mode4D2D = true
**.amcMode = "D2D"
*.node[*].nicType = "LteNicVUeMode4"
*.node[*].lteNic.d2dCapable = true
*.node[*].lteNic.pdcpRrc.ipBased = false
*.node[*].lteNic.rlc.ipBased = false
*.node[*].lteNic.mac.subchannelSize = 16
*.node[*].lteNic.mac.numSubchannels = 3
*.node[*].lteNic.phy.subchannelSize = 16
*.node[*].lteNic.phy.numSubchannels = 3
*.node[*].lteNic.mac.probResourceKeep = 0.4
*.node[*].lteNic.phy.pStep = 10
*.node[*].ueTxPower = 23
**.usePreconfiguredTxParams = true
*.node[*].application.typename = "artery.lte.Mode4Application"
*.node[*].application.middleware.updateInterval = 0.1s
*.node[*].application.middleware.datetime = "2013-06-01 12:35:00"
*.node[*].application.middleware.services = xmldoc("services.xml")

