<?xml version="1.0" encoding="UTF-8"?>
<!--
<routes xmlns:xsi="http://www.w3.org/2001/XMLSchema-instance" xsi:noNamespaceSchemaLocation="http://sumo.dlr.de/xsd/routes_file.xsd">
    <vType id="vtype0" accel="1.0" decel="5.0" id="Car" length="2.0" maxSpeed="100.0" sigma="0.0"/>
    <route id="route0" edges="1to2 out"/>
    <vehicle depart="0.00" id="veh0" route="route0" type="Car" color="yellow"/>
    <vehicle depart="5.00" id="veh1" route="route0" type="Car" color="yellow"/>
    <vehicle depart="10.00" id="veh2" route="route0" type="Car" color="yellow"/>
    <vehicle depart="15.00" id="veh3" route="route0" type="Car" color="yellow"/>
    <vehicle depart="20.00" id="veh4" route="route0" type="Car" color="yellow"/>
    <vehicle depart="25.00" id="veh5" route="route0" type="Car" color="yellow"/>
    <vehicle depart="30.00" id="veh6" route="route0" type="Car" color="yellow"/>
    <vehicle depart="35.00" id="veh7" route="route0" type="Car" color="yellow"/>
    <vehicle depart="40.00" id="veh8" route="route0" type="Car" color="yellow"/>
    <vehicle depart="45.00" id="veh9" route="route0" type="Car" color="yellow"/> 

</routes>
-->
<routes>
    <vType id="vtype0" accel="1.0" decel="5.0" length="2.0" maxSpeed="50" sigma="0.0"/>

    <!-- 最初にランダムに配置 -->
    <flow id="0" color="1,1,0"  begin="0" end="1" period="0.5" type="vtype0"  from="1to2" departLane="random" departPos="random" departSpeed="max"/>
    <!-- <flow id="1" color="0,0,1"  begin="0" end="1" period="0.05" type="vtype0"  from="-1to2" departLane="random" departPos="random" departSpeed="max"/> -->

    <!-- 時間とともに端から追加 -->
    <!-- <flow id="2" color="1,1,0"  begin="0" end="200" probability="0.8" type="vtype0"  from="1to2" departLane="random" departSpeed="max"/> 
    <flow id="3" color="0,0,1"  begin="0" end="200" probability="0.8" type="vtype0"  from="-1to2" departLane="random" departSpeed="max"/>  -->
</routes>