<?xml version="1.0" encoding="UTF-8"?>

<routes>
    <!-- 速度70km/h, 66km/h, 59km/hの車両タイプを用意 -->
    <vType id="vtype0" accel="1.0" decel="5.0" length="2.0" maxSpeed="19.4444" sigma="0.0"/>
    <!-- <vType id="vtype1" accel="1.0" decel="5.0" length="2.0" maxSpeed="18.3333" sigma="0.0"/>
    <vType id="vtype2" accel="1.0" decel="5.0" length="2.0" maxSpeed="16.3889" sigma="0.0"/> -->

    <!-- 最初に、両方向に合わせて180台の車両をランダムな位置に生成 -->
    <flow id="0" color="1,1,0"  begin="0" end="1" period="0.01111" type="vtype0"  from="E0" departLane="random" departPos="random" departSpeed="max"/>
    <flow id="1" color="0,0,1"  begin="0" end="1" period="0.01111" type="vtype0"  from="-E0" departLane="random" departPos="random" departSpeed="max"/>

    <!-- 以降、1秒に0.5台の確率で端から車両を追加 -->
    <flow id="2" color="1,1,0"  begin="0" end="100" probability="0.5" type="vtype0"  from="E0" departLane="0" departSpeed="max"/> 
    <flow id="3" color="0,0,1"  begin="0" end="100" probability="0.5" type="vtype0"  from="-E0" departLane="0" departSpeed="max"/> 
    
    <flow id="4" color="1,1,0"  begin="0" end="100" probability="0.5" type="vtype0"  from="E0" departLane="1" departSpeed="max"/> 
    <flow id="5" color="0,0,1"  begin="0" end="100" probability="0.5" type="vtype0"  from="-E0" departLane="1" departSpeed="max"/> 
    
    <flow id="6" color="1,1,0"  begin="0" end="100" probability="0.5" type="vtype0"  from="E0" departLane="2" departSpeed="max"/> 
    <flow id="7" color="0,0,1"  begin="0" end="100" probability="0.5" type="vtype0"  from="-E0" departLane="2" departSpeed="max"/> 
</routes>