<?xml version="1.0" encoding="UTF-8"?>

<routes>
    <vType id="vtype0" accel="1.0" decel="5.0" length="2.0" maxSpeed="14" sigma="0.0"/>
    
    <!-- 120veh/kmとなるように車両を生成 -->
    <!-- 最初にランダムに配置 -->
    <flow id="0" color="1,1,0"  begin="0" end="1" period="0.01667" type="vtype0"  from="E0" departLane="random" departPos="random" departSpeed="max"/>
    <flow id="1" color="0,0,1"  begin="0" end="1" period="0.01667" type="vtype0"  from="-E0" departLane="random" departPos="random" departSpeed="max"/>

    <!-- 時間とともに端から追加 -->
    <flow id="2" color="1,1,0"  begin="0" end="200" probability="0.8" type="vtype0"  from="E0" departLane="random" departSpeed="max"/> 
    <flow id="3" color="0,0,1"  begin="0" end="200" probability="0.8" type="vtype0"  from="-E0" departLane="random" departSpeed="max"/> 

</routes>