<?xml version="1.0" encoding="UTF-8"?>

<routes>
    <vType id="vtype0" accel="1.0" decel="5.0" length="2.0" maxSpeed="19.4444" sigma="0.0"/>

    <!-- 120veh/kmとなるように車両を生成 -->
    <!-- 最初にランダムに配置 -->
    <flow id="0" color="1,1,0"  begin="0" end="1" period="0.005555" type="vtype0"  from="E0" departLane="random" departPos="random" departSpeed="max"/>
    <flow id="1" color="0,0,1"  begin="0" end="1" period="0.005555" type="vtype0"  from="-E0" departLane="random" departPos="random" departSpeed="max"/>

    <!-- 時間とともに端から追加 -->
    <flow id="2" color="1,1,0"  begin="0" end="200" probability="0.5" type="vtype0"  from="E0" departLane="0" departSpeed="max"/> 
    <flow id="3" color="0,0,1"  begin="0" end="200" probability="0.5" type="vtype0"  from="-E0" departLane="0" departSpeed="max"/> 

    <flow id="4" color="1,1,0"  begin="0" end="200" probability="0.5" type="vtype0"  from="E0" departLane="1" departSpeed="max"/> 
    <flow id="5" color="0,0,1"  begin="0" end="200" probability="0.5" type="vtype0"  from="-E0" departLane="1" departSpeed="max"/> 

    <flow id="6" color="1,1,0"  begin="0" end="200" probability="0.5" type="vtype0"  from="E0" departLane="2" departSpeed="max"/> 
    <flow id="7" color="0,0,1"  begin="0" end="200" probability="0.5" type="vtype0"  from="-E0" departLane="2" departSpeed="max"/> 
</routes>