<?xml version="1.0" encoding="UTF-8"?>

<routes>
    <vType id="vtype0" accel="1.0" decel="5.0" length="2.0" maxSpeed="16.7" sigma="0.0"/>

    <flow id="flow0" color="1,1,0"  begin="0" end= "100" period="4" type="vtype0"  from="E0" departLane="0"/>
    <flow id="flow1" color="1,0,0"  begin="0" end= "100" period="4" type="vtype0"  from="E0" departLane="1"/>
    <flow id="flow2" color="0,1,0"  begin="0" end= "100" period="4" type="vtype0"  from="E0" departLane="2"/>
    <flow id="flow3" color="0,0,1"  begin="0" end= "100" period="4" type="vtype0"  from="E0" departLane="3"/>

    <flow id="flow4" color="1,1,0"  begin="0" end= "100" period="4" type="vtype0"  from="-E0" departLane="0"/>
    <flow id="flow5" color="1,0,0"  begin="0" end= "100" period="4" type="vtype0"  from="-E0" departLane="1"/>
    <flow id="flow6" color="0,1,0"  begin="0" end= "100" period="4" type="vtype0"  from="-E0" departLane="2"/>
    <flow id="flow7" color="0,0,1"  begin="0" end= "100" period="4" type="vtype0"  from="-E0" departLane="3"/>
</routes>