<?xml version="1.0" encoding="UTF-8"?>

<!-- generated on 2023-10-27 18:26:50 by Eclipse SUMO netedit Version 1.18.0
<configuration xmlns:xsi="http://www.w3.org/2001/XMLSchema-instance" xsi:noNamespaceSchemaLocation="http://sumo.dlr.de/xsd/neteditConfiguration.xsd">

    <input>
        <sumo-net-file value="/home/miyata/omnetpp-5.4.1/OpenCV2X/scenarios/myscena2/myroad/highway1_5km.net.xml"/>
    </input>

    <output>
        <output-file value="/home/miyata/omnetpp-5.4.1/OpenCV2X/scenarios/myscena2/myroad/highway1_5km.net.xml"/>
    </output>

    <processing>
        <geometry.min-radius.fix.railways value="false"/>
        <geometry.max-grade.fix value="false"/>
        <offset.disable-normalization value="true"/>
        <lefthand value="0"/>
    </processing>

    <junctions>
        <no-internal-links value="true"/>
        <no-turnarounds value="true"/>
        <junctions.corner-detail value="5"/>
        <junctions.limit-turn-speed value="5.50"/>
        <rectangular-lane-cut value="0"/>
    </junctions>

    <pedestrian>
        <walkingareas value="0"/>
    </pedestrian>

</configuration>
-->

<net version="1.16" junctionCornerDetail="5" limitTurnSpeed="5.50" xmlns:xsi="http://www.w3.org/2001/XMLSchema-instance" xsi:noNamespaceSchemaLocation="http://sumo.dlr.de/xsd/net_file.xsd">

    <location netOffset="0.00,0.00" convBoundary="0.00,0.00,1500.00,0.00" origBoundary="-10000000000.00,-10000000000.00,10000000000.00,10000000000.00" projParameter="!"/>

    <edge id="-E0" from="J1" to="J0" priority="-1">
        <lane id="-E0_0" index="0" speed="16.3889" length="1500.00" shape="1500.00,8.00 0.00,8.00"/>
        <lane id="-E0_1" index="1" speed="18.3333" length="1500.00" shape="1500.00,4.80 0.00,4.80"/>
        <lane id="-E0_2" index="2" speed="19.4444" length="1500.00" shape="1500.00,1.60 0.00,1.60"/>
    </edge>
    <edge id="E0" from="J0" to="J1" priority="-1">
        <lane id="E0_0" index="0" speed="16.3889" length="1500.00" shape="0.00,-8.00 1500.00,-8.00"/>
        <lane id="E0_1" index="1" speed="18.3333" length="1500.00" shape="0.00,-4.80 1500.00,-4.80"/>
        <lane id="E0_2" index="2" speed="19.4444" length="1500.00" shape="0.00,-1.60 1500.00,-1.60"/>
    </edge>

    <junction id="J0" type="dead_end" x="0.00" y="0.00" incLanes="-E0_0 -E0_1 -E0_2" intLanes="" shape="0.00,0.00 0.00,9.60 0.00,0.00"/>
    <junction id="J1" type="dead_end" x="1500.00" y="0.00" incLanes="E0_0 E0_1 E0_2" intLanes="" shape="1500.00,0.00 1500.00,-9.60 1500.00,0.00" rightOfWay="allwayStop" fringe="inner"/>

</net>
