<configuration>
    <input>
        <net-file value="highway5km.net.xml"/>
        <route-files value="highway5km.rou.xml"/>
        <gui-settings-file value="hello.settings.xml"/>
    </input>
    <time>
        <begin value="0"/>
        <end value="1000"/>
        <step-length value="0.1"/>
    </time>

</configuration>