<?xml version="1.0" encoding="UTF-8"?>

<!-- generated on Mon 17 Feb 2020 12:12:40 GMT by Eclipse SUMO netedit Version 1.4.0
<configuration xmlns:xsi="http://www.w3.org/2001/XMLSchema-instance" xsi:noNamespaceSchemaLocation="http://sumo.dlr.de/xsd/netconvertConfiguration.xsd">

    <input>
        <sumo-net-file value="01vpm.net.xml"/>
    </input>

    <output>
        <output-file value="01vpm.net.xml"/>
    </output>

    <processing>
        <geometry.min-radius.fix.railways value="false"/>
        <geometry.max-grade.fix value="false"/>
        <offset.disable-normalization value="true"/>
        <lefthand value="false"/>
    </processing>

    <junctions>
        <no-internal-links value="true"/>
        <no-turnarounds value="true"/>
        <junctions.corner-detail value="5"/>
        <junctions.limit-turn-speed value="5.5"/>
        <rectangular-lane-cut value="false"/>
    </junctions>

    <pedestrian>
        <walkingareas value="false"/>
    </pedestrian>

    <report>
        <aggregate-warnings value="5"/>
    </report>

</configuration>
-->

<net version="1.3" junctionCornerDetail="5" limitTurnSpeed="5.50" xmlns:xsi="http://www.w3.org/2001/XMLSchema-instance" xsi:noNamespaceSchemaLocation="http://sumo.dlr.de/xsd/net_file.xsd">

    <location netOffset="0.00,0.00" convBoundary="50.00,0.00,5000.00,0.00" origBoundary="-10000000000.000000,-10000000000.000000,10000000000.000000,10000000000.000000" projParameter="+proj=tmerc +lat_0=48.78407 +lon_0=11.47258 +ellps=WGS84 +datum=WGS84 +units=m +no_defs"/>

    <edge id="LSRE" from="LS" to="RE" priority="-1">
        <lane id="LSRE_0" index="0" speed="19.44" length="4950.00" width="4.00" shape="50.00,-6.00 5000.00,-6.00"/>
        <lane id="LSRE_1" index="1" speed="19.44" length="4950.00" width="4.00" shape="50.00,-2.00 5000.00,-2.00"/>
    </edge>
    <edge id="RELS" from="RE" to="LS" priority="-1">
        <lane id="RELS_0" index="0" speed="19.44" length="4950.00" width="4.00" shape="5000.00,6.00 50.00,6.00"/>
        <lane id="RELS_1" index="1" speed="19.44" length="4950.00" width="4.00" shape="5000.00,2.00 50.00,2.00"/>
    </edge>

    <junction id="LS" type="dead_end" x="50.00" y="0.00" incLanes="RELS_0 RELS_1" intLanes="" shape="50.00,0.00 50.00,8.00 50.00,0.00"/>
    <junction id="RE" type="dead_end" x="5000.00" y="0.00" incLanes="LSRE_0 LSRE_1" intLanes="" shape="5000.00,0.00 5000.00,-8.00 5000.00,0.00"/>

</net>
