[General]
seed-set = 60208
cmdenv-express-mode = true
cmdenv-autoflush = true
network = artery.lte.Mode4World
debug-on-errors = true
print-undisposed = false
sim-time-limit = 512s
repeat = 1
**.statistic-recording = true
**.scalar-recording = true
**.vector-recording = true
**.coreDebug = false
**.routingRecorder.enabled = false
*.playgroundSizeX = 20000m
*.playgroundSizeY = 20000m
*.playgroundSizeZ = 50m
*.traci.core.version = -1
*.traci.launcher.typename = "PosixLauncher"
*.traci.core.startTime = 500s
num-rngs = 4
*.traci.mapper.rng-0 = 1
**.deployer.positionUpdateInterval = 0.001s
**.channelControl.pMax = 10W
**.channelControl.alpha = 1.0
**.channelControl.carrierFrequency = 6000e+6Hz
**.rbAllocationType = "localized"
**.feedbackType = "ALLBANDS"
**.feedbackGeneratorType = "IDEAL"
**.maxHarqRtx = 0
**.deployer.ruRange = 50
**.deployer.ruTxPower = "50,50,50;"
**.deployer.antennaCws = "2;" # !!MACRO + RUS (numRus + 1)
**.deployer.numRbDl = 51
**.deployer.numRbUl = 48
**.numBands = 48
**.fbDelay = 1
**.macDelayDl.statistic-recording = false
**.macThroughputDl.statistic-recording = false
**.macDelayUl.statistic-recording = false
**.macThroughputUl.statistic-recording = false
**.macDelayD2D.statistic-recording = false
**.macThroughputD2D.statistic-recording = false
**.macCellThroughputUl.statistic-recording = false
**.macCellThroughputDl.statistic-recording = false
**.macCellThroughputD2D.statistic-recording = false
**.macCellPacketLossDl.statistic-recording = false
**.macCellPacketLossUl.statistic-recording = false
**.macCellPacketLossD2D.statistic-recording = false
**.macPacketLossUl.statistic-recording = false
**.macPacketLossDl.statistic-recording = false
**.macPacketLossD2D.statistic-recording = false
**.macBufferOverFlowDl.statistic-recording = false
**.macBufferOverFlowUl.statistic-recording = false
**.macBufferOverFlowD2D.statistic-recording = false
**.harqErrorRateUl.statistic-recording = false
**.harqErrorRateDl.statistic-recording = false
**.harqErrorRateD2D.statistic-recording = false
**.harqErrorRate_1st_Ul.statistic-recording = false
**.harqErrorRate_1st_Dl.statistic-recording = false
**.harqErrorRate_1st_D2D.statistic-recording = false
**.harqErrorRate_2nd_Ul.statistic-recording = false
**.harqErrorRate_2nd_D2D.statistic-recording = false
**.harqErrorRate_3rd_Ul.statistic-recording = false
**.harqErrorRate_3rd_Dl.statistic-recording = false
**.harqErrorRate_3rd_D2D.statistic-recording = false
**.harqErrorRate_4th_Ul.statistic-recording = false
**.harqErrorRate_4th_Dl.statistic-recording = false
**.harqErrorRate_4th_D2D.statistic-recording = false
**.receivedPacketFromUpperLayer.statistic-recording = false
**.receivedPacketFromLowerLayer.statistic-recording = false
**.sentPacketToUpperLayer.statistic-recording = false
**.sentPacketToLowerLayer.statistic-recording = false
**.measuredItbs.statistic-recording = false
**.pdcpdrop0.statistic-recording = false
**.pdcpdrop1.statistic-recording = false
**.pdcpdrop2.statistic-recording = false
**.pdcpdrop3.statistic-recording = false
**.averageCqiD2D.statistic-recording = false
**.averageCqiDl.statistic-recording = false
**.averageCqiUl.statistic-recording = false

[Config MCS7-fast-10dbm]
*.node[*].d2dCapable = true
*.node[*].mode4D2D = true
**.amcMode = "D2D"
*.node[*].nicType = "LteNicVUeMode4"
*.node[*].lteNic.d2dCapable = true
*.node[*].lteNic.pdcpRrc.ipBased = false
*.node[*].lteNic.rlc.ipBased = false
*.node[*].lteNic.mac.subchannelSize = 14
*.node[*].lteNic.mac.numSubchannels = 2
*.node[*].lteNic.mac.probResourceKeep = 0.4
*.node[*].lteNic.mac.useCBR = false
*.node[*].lteNic.mac.packetDropping = false
*.node[*].lteNic.mac.reselectAfter = 1
*.node[*].lteNic.mac.adjacencyPSCCHPSSCH = true
*.node[*].lteNic.rlc.um.packetSize = 190
*.node[*].lteNic.phy.subchannelSize = 14
*.node[*].lteNic.phy.numSubchannels = 2
*.node[*].lteNic.phy.selectionWindowStartingSubframe = 1
*.node[*].lteNic.phy.adjacencyPSCCHPSSCH = true
*.node[*].lteNic.phy.pStep = 100
*.node[*].lteNic.phy.thresholdRSSI = 11
*.node[*].lteNic.phy.d2dTxPower = 10
**.usePreconfiguredTxParams = true
*.node[*].application.typename = "artery.lte.Mode4Application"
*.node[*].application.middleware.updateInterval = 0.1s
*.node[*].application.middleware.datetime = "2013-06-01 12:35:00"
*.node[*].application.middleware.services = xmldoc("services.xml")
**.lteNic.mac.txConfig = xmldoc("mcs7_sidelink_config.xml")
*.node[*].middleware.updateInterval = 0.1 s
*.node[*].middleware.datetime = "2018-01-17 13:44:00"
*.node[*].middleware.services = xmldoc("services.xml")
*.node[*].middleware.CaService.withDccRestriction = false
*.node[*].vanetza.dcc.TransmitRateControl = "NoTransmitRateControl"
*.node[*].middleware.CaService.fixedRate = true
*.node[*].middleware.CaService.minInterval = 0.1 s
*.node[*].middleware.CaService.maxInterval = 1 s
**.lteNic.phy.channelModel = xmldoc("mcs7_config_channel.xml")
**.feedbackComputation = xmldoc("mcs7_config_channel.xml")
*.traci.launcher.sumocfg = "highway/fast/fast.sumo.cfg"
output-vector-file = "/hdd/results-analysis/data/omnet/mcs7/${configname}/${runid}.vec"
output-scalar-file = "/hdd/results-analysis/data/omnet/mcs7/${configname}/${runid}.sca"

[Config MCS7-fast-20dbm]
*.node[*].d2dCapable = true
*.node[*].mode4D2D = true
**.amcMode = "D2D"
*.node[*].nicType = "LteNicVUeMode4"
*.node[*].lteNic.d2dCapable = true
*.node[*].lteNic.pdcpRrc.ipBased = false
*.node[*].lteNic.rlc.ipBased = false
*.node[*].lteNic.mac.subchannelSize = 14
*.node[*].lteNic.mac.numSubchannels = 2
*.node[*].lteNic.mac.probResourceKeep = 0.4
*.node[*].lteNic.mac.useCBR = false
*.node[*].lteNic.mac.packetDropping = false
*.node[*].lteNic.mac.reselectAfter = 1
*.node[*].lteNic.mac.adjacencyPSCCHPSSCH = true
*.node[*].lteNic.rlc.um.packetSize = 190
*.node[*].lteNic.phy.subchannelSize = 14
*.node[*].lteNic.phy.numSubchannels = 2
*.node[*].lteNic.phy.selectionWindowStartingSubframe = 1
*.node[*].lteNic.phy.adjacencyPSCCHPSSCH = true
*.node[*].lteNic.phy.pStep = 100
*.node[*].lteNic.phy.thresholdRSSI = 11
*.node[*].lteNic.phy.d2dTxPower = 20
**.usePreconfiguredTxParams = true
*.node[*].application.typename = "artery.lte.Mode4Application"
*.node[*].application.middleware.updateInterval = 0.1s
*.node[*].application.middleware.datetime = "2013-06-01 12:35:00"
*.node[*].application.middleware.services = xmldoc("services.xml")
**.lteNic.mac.txConfig = xmldoc("mcs7_sidelink_config.xml")
*.node[*].middleware.updateInterval = 0.1 s
*.node[*].middleware.datetime = "2018-01-17 13:44:00"
*.node[*].middleware.services = xmldoc("services.xml")
*.node[*].middleware.CaService.withDccRestriction = false
*.node[*].vanetza.dcc.TransmitRateControl = "NoTransmitRateControl"
*.node[*].middleware.CaService.fixedRate = true
*.node[*].middleware.CaService.minInterval = 0.1 s
*.node[*].middleware.CaService.maxInterval = 1 s
**.lteNic.phy.channelModel = xmldoc("mcs7_config_channel.xml")
**.feedbackComputation = xmldoc("mcs7_config_channel.xml")
*.traci.launcher.sumocfg = "highway/fast/fast.sumo.cfg"
output-vector-file = "/hdd/results-analysis/data/omnet/mcs7/${configname}/${runid}.vec"
output-scalar-file = "/hdd/results-analysis/data/omnet/mcs7/${configname}/${runid}.sca"

[Config MCS7-fast-23dbm]
*.node[*].d2dCapable = true
*.node[*].mode4D2D = true
**.amcMode = "D2D"
*.node[*].nicType = "LteNicVUeMode4"
*.node[*].lteNic.d2dCapable = true
*.node[*].lteNic.pdcpRrc.ipBased = false
*.node[*].lteNic.rlc.ipBased = false
*.node[*].lteNic.mac.subchannelSize = 14
*.node[*].lteNic.mac.numSubchannels = 2
*.node[*].lteNic.mac.probResourceKeep = 0.4
*.node[*].lteNic.mac.useCBR = false
*.node[*].lteNic.mac.packetDropping = false
*.node[*].lteNic.mac.reselectAfter = 1
*.node[*].lteNic.mac.adjacencyPSCCHPSSCH = true
*.node[*].lteNic.rlc.um.packetSize = 190
*.node[*].lteNic.phy.subchannelSize = 14
*.node[*].lteNic.phy.numSubchannels = 2
*.node[*].lteNic.phy.selectionWindowStartingSubframe = 1
*.node[*].lteNic.phy.adjacencyPSCCHPSSCH = true
*.node[*].lteNic.phy.pStep = 100
*.node[*].lteNic.phy.thresholdRSSI = 11
*.node[*].lteNic.phy.d2dTxPower = 23
**.usePreconfiguredTxParams = true
*.node[*].application.typename = "artery.lte.Mode4Application"
*.node[*].application.middleware.updateInterval = 0.1s
*.node[*].application.middleware.datetime = "2013-06-01 12:35:00"
*.node[*].application.middleware.services = xmldoc("services.xml")
**.lteNic.mac.txConfig = xmldoc("mcs7_sidelink_config.xml")
*.node[*].middleware.updateInterval = 0.1 s
*.node[*].middleware.datetime = "2018-01-17 13:44:00"
*.node[*].middleware.services = xmldoc("services.xml")
*.node[*].middleware.CaService.withDccRestriction = false
*.node[*].vanetza.dcc.TransmitRateControl = "NoTransmitRateControl"
*.node[*].middleware.CaService.fixedRate = true
*.node[*].middleware.CaService.minInterval = 0.1 s
*.node[*].middleware.CaService.maxInterval = 1 s
**.lteNic.phy.channelModel = xmldoc("mcs7_config_channel.xml")
**.feedbackComputation = xmldoc("mcs7_config_channel.xml")
*.traci.launcher.sumocfg = "highway/fast/fast.sumo.cfg"
output-vector-file = "/hdd/results-analysis/data/omnet/mcs7/${configname}/${runid}.vec"
output-scalar-file = "/hdd/results-analysis/data/omnet/mcs7/${configname}/${runid}.sca"

[Config MCS7-medium-10dbm]
*.node[*].d2dCapable = true
*.node[*].mode4D2D = true
**.amcMode = "D2D"
*.node[*].nicType = "LteNicVUeMode4"
*.node[*].lteNic.d2dCapable = true
*.node[*].lteNic.pdcpRrc.ipBased = false
*.node[*].lteNic.rlc.ipBased = false
*.node[*].lteNic.mac.subchannelSize = 14
*.node[*].lteNic.mac.numSubchannels = 2
*.node[*].lteNic.mac.probResourceKeep = 0.4
*.node[*].lteNic.mac.useCBR = false
*.node[*].lteNic.mac.packetDropping = false
*.node[*].lteNic.mac.reselectAfter = 1
*.node[*].lteNic.mac.adjacencyPSCCHPSSCH = true
*.node[*].lteNic.rlc.um.packetSize = 190
*.node[*].lteNic.phy.subchannelSize = 14
*.node[*].lteNic.phy.numSubchannels = 2
*.node[*].lteNic.phy.selectionWindowStartingSubframe = 1
*.node[*].lteNic.phy.adjacencyPSCCHPSSCH = true
*.node[*].lteNic.phy.pStep = 100
*.node[*].lteNic.phy.thresholdRSSI = 11
*.node[*].lteNic.phy.d2dTxPower = 10
**.usePreconfiguredTxParams = true
*.node[*].application.typename = "artery.lte.Mode4Application"
*.node[*].application.middleware.updateInterval = 0.1s
*.node[*].application.middleware.datetime = "2013-06-01 12:35:00"
*.node[*].application.middleware.services = xmldoc("services.xml")
**.lteNic.mac.txConfig = xmldoc("mcs7_sidelink_config.xml")
*.node[*].middleware.updateInterval = 0.1 s
*.node[*].middleware.datetime = "2018-01-17 13:44:00"
*.node[*].middleware.services = xmldoc("services.xml")
*.node[*].middleware.CaService.withDccRestriction = false
*.node[*].vanetza.dcc.TransmitRateControl = "NoTransmitRateControl"
*.node[*].middleware.CaService.fixedRate = true
*.node[*].middleware.CaService.minInterval = 0.1 s
*.node[*].middleware.CaService.maxInterval = 1 s
**.lteNic.phy.channelModel = xmldoc("mcs7_config_channel.xml")
**.feedbackComputation = xmldoc("mcs7_config_channel.xml")
*.traci.launcher.sumocfg = "highway/medium/medium.sumo.cfg"
output-vector-file = "/hdd/results-analysis/data/omnet/mcs7/${configname}/${runid}.vec"
output-scalar-file = "/hdd/results-analysis/data/omnet/mcs7/${configname}/${runid}.sca"

[Config MCS7-medium-20dbm]
*.node[*].d2dCapable = true
*.node[*].mode4D2D = true
**.amcMode = "D2D"
*.node[*].nicType = "LteNicVUeMode4"
*.node[*].lteNic.d2dCapable = true
*.node[*].lteNic.pdcpRrc.ipBased = false
*.node[*].lteNic.rlc.ipBased = false
*.node[*].lteNic.mac.subchannelSize = 14
*.node[*].lteNic.mac.numSubchannels = 2
*.node[*].lteNic.mac.probResourceKeep = 0.4
*.node[*].lteNic.mac.useCBR = false
*.node[*].lteNic.mac.packetDropping = false
*.node[*].lteNic.mac.reselectAfter = 1
*.node[*].lteNic.mac.adjacencyPSCCHPSSCH = true
*.node[*].lteNic.rlc.um.packetSize = 190
*.node[*].lteNic.phy.subchannelSize = 14
*.node[*].lteNic.phy.numSubchannels = 2
*.node[*].lteNic.phy.selectionWindowStartingSubframe = 1
*.node[*].lteNic.phy.adjacencyPSCCHPSSCH = true
*.node[*].lteNic.phy.pStep = 100
*.node[*].lteNic.phy.thresholdRSSI = 11
*.node[*].lteNic.phy.d2dTxPower = 20
**.usePreconfiguredTxParams = true
*.node[*].application.typename = "artery.lte.Mode4Application"
*.node[*].application.middleware.updateInterval = 0.1s
*.node[*].application.middleware.datetime = "2013-06-01 12:35:00"
*.node[*].application.middleware.services = xmldoc("services.xml")
**.lteNic.mac.txConfig = xmldoc("mcs7_sidelink_config.xml")
*.node[*].middleware.updateInterval = 0.1 s
*.node[*].middleware.datetime = "2018-01-17 13:44:00"
*.node[*].middleware.services = xmldoc("services.xml")
*.node[*].middleware.CaService.withDccRestriction = false
*.node[*].vanetza.dcc.TransmitRateControl = "NoTransmitRateControl"
*.node[*].middleware.CaService.fixedRate = true
*.node[*].middleware.CaService.minInterval = 0.1 s
*.node[*].middleware.CaService.maxInterval = 1 s
**.lteNic.phy.channelModel = xmldoc("mcs7_config_channel.xml")
**.feedbackComputation = xmldoc("mcs7_config_channel.xml")
*.traci.launcher.sumocfg = "highway/medium/medium.sumo.cfg"
output-vector-file = "/hdd/results-analysis/data/omnet/mcs7/${configname}/${runid}.vec"
output-scalar-file = "/hdd/results-analysis/data/omnet/mcs7/${configname}/${runid}.sca"

[Config MCS7-medium-20dbm-20hz]
*.node[*].d2dCapable = true
*.node[*].mode4D2D = true
**.amcMode = "D2D"
*.node[*].nicType = "LteNicVUeMode4"
*.node[*].lteNic.d2dCapable = true
*.node[*].lteNic.pdcpRrc.ipBased = false
*.node[*].lteNic.rlc.ipBased = false
*.node[*].lteNic.mac.subchannelSize = 14
*.node[*].lteNic.mac.numSubchannels = 2
*.node[*].lteNic.mac.probResourceKeep = 0.4
*.node[*].lteNic.mac.useCBR = false
*.node[*].lteNic.mac.packetDropping = false
*.node[*].lteNic.mac.reselectAfter = 1
*.node[*].lteNic.mac.adjacencyPSCCHPSSCH = true
*.node[*].lteNic.rlc.um.packetSize = 190
*.node[*].lteNic.phy.subchannelSize = 14
*.node[*].lteNic.phy.numSubchannels = 2
*.node[*].lteNic.phy.selectionWindowStartingSubframe = 1
*.node[*].lteNic.phy.adjacencyPSCCHPSSCH = true
*.node[*].lteNic.phy.pStep = 100
*.node[*].lteNic.phy.thresholdRSSI = 11
*.node[*].lteNic.phy.d2dTxPower = 20
**.usePreconfiguredTxParams = true
*.node[*].application.typename = "artery.lte.Mode4Application"
*.node[*].application.middleware.updateInterval = 0.1s
*.node[*].application.middleware.datetime = "2013-06-01 12:35:00"
*.node[*].application.middleware.services = xmldoc("services.xml")
**.lteNic.mac.txConfig = xmldoc("mcs7_sidelink_config_20hz.xml")
*.node[*].middleware.updateInterval = 0.1 s
*.node[*].middleware.datetime = "2018-01-17 13:44:00"
*.node[*].middleware.services = xmldoc("services.xml")
*.node[*].middleware.CaService.withDccRestriction = false
*.node[*].vanetza.dcc.TransmitRateControl = "NoTransmitRateControl"
*.node[*].middleware.CaService.fixedRate = true
*.node[*].middleware.CaService.minInterval = 0.1 s
*.node[*].middleware.CaService.maxInterval = 1 s
**.lteNic.phy.channelModel = xmldoc("mcs7_config_channel.xml")
**.feedbackComputation = xmldoc("mcs7_config_channel.xml")
*.traci.launcher.sumocfg = "highway/medium/medium.sumo.cfg"
output-vector-file = "/hdd/results-analysis/data/omnet/mcs7/${configname}/${runid}.vec"
output-scalar-file = "/hdd/results-analysis/data/omnet/mcs7/${configname}/${runid}.sca"

[Config MCS7-medium-20dbm-50hz]
*.node[*].d2dCapable = true
*.node[*].mode4D2D = true
**.amcMode = "D2D"
*.node[*].nicType = "LteNicVUeMode4"
*.node[*].lteNic.d2dCapable = true
*.node[*].lteNic.pdcpRrc.ipBased = false
*.node[*].lteNic.rlc.ipBased = false
*.node[*].lteNic.mac.subchannelSize = 14
*.node[*].lteNic.mac.numSubchannels = 2
*.node[*].lteNic.mac.probResourceKeep = 0.4
*.node[*].lteNic.mac.useCBR = false
*.node[*].lteNic.mac.packetDropping = false
*.node[*].lteNic.mac.reselectAfter = 1
*.node[*].lteNic.mac.adjacencyPSCCHPSSCH = true
*.node[*].lteNic.rlc.um.packetSize = 190
*.node[*].lteNic.phy.subchannelSize = 14
*.node[*].lteNic.phy.numSubchannels = 2
*.node[*].lteNic.phy.selectionWindowStartingSubframe = 1
*.node[*].lteNic.phy.adjacencyPSCCHPSSCH = true
*.node[*].lteNic.phy.pStep = 100
*.node[*].lteNic.phy.thresholdRSSI = 11
*.node[*].lteNic.phy.d2dTxPower = 20
**.usePreconfiguredTxParams = true
*.node[*].application.typename = "artery.lte.Mode4Application"
*.node[*].application.middleware.updateInterval = 0.1s
*.node[*].application.middleware.datetime = "2013-06-01 12:35:00"
*.node[*].application.middleware.services = xmldoc("services.xml")
**.lteNic.mac.txConfig = xmldoc("mcs7_sidelink_config_50hz.xml")
*.node[*].middleware.updateInterval = 0.1 s
*.node[*].middleware.datetime = "2018-01-17 13:44:00"
*.node[*].middleware.services = xmldoc("services.xml")
*.node[*].middleware.CaService.withDccRestriction = false
*.node[*].vanetza.dcc.TransmitRateControl = "NoTransmitRateControl"
*.node[*].middleware.CaService.fixedRate = true
*.node[*].middleware.CaService.minInterval = 0.1 s
*.node[*].middleware.CaService.maxInterval = 1 s
**.lteNic.phy.channelModel = xmldoc("mcs7_config_channel.xml")
**.feedbackComputation = xmldoc("mcs7_config_channel.xml")
*.traci.launcher.sumocfg = "highway/medium/medium.sumo.cfg"
output-vector-file = "/hdd/results-analysis/data/omnet/mcs7/${configname}/${runid}.vec"
output-scalar-file = "/hdd/results-analysis/data/omnet/mcs7/${configname}/${runid}.sca"

[Config MCS7-medium-23dbm]
*.node[*].d2dCapable = true
*.node[*].mode4D2D = true
**.amcMode = "D2D"
*.node[*].nicType = "LteNicVUeMode4"
*.node[*].lteNic.d2dCapable = true
*.node[*].lteNic.pdcpRrc.ipBased = false
*.node[*].lteNic.rlc.ipBased = false
*.node[*].lteNic.mac.subchannelSize = 14
*.node[*].lteNic.mac.numSubchannels = 2
*.node[*].lteNic.mac.probResourceKeep = 0.4
*.node[*].lteNic.mac.useCBR = false
*.node[*].lteNic.mac.packetDropping = false
*.node[*].lteNic.mac.reselectAfter = 1
*.node[*].lteNic.mac.adjacencyPSCCHPSSCH = true
*.node[*].lteNic.rlc.um.packetSize = 190
*.node[*].lteNic.phy.subchannelSize = 14
*.node[*].lteNic.phy.numSubchannels = 2
*.node[*].lteNic.phy.selectionWindowStartingSubframe = 1
*.node[*].lteNic.phy.adjacencyPSCCHPSSCH = true
*.node[*].lteNic.phy.pStep = 100
*.node[*].lteNic.phy.thresholdRSSI = 11
*.node[*].lteNic.phy.d2dTxPower = 23
**.usePreconfiguredTxParams = true
*.node[*].application.typename = "artery.lte.Mode4Application"
*.node[*].application.middleware.updateInterval = 0.1s
*.node[*].application.middleware.datetime = "2013-06-01 12:35:00"
*.node[*].application.middleware.services = xmldoc("services.xml")
**.lteNic.mac.txConfig = xmldoc("mcs7_sidelink_config.xml")
*.node[*].middleware.updateInterval = 0.1 s
*.node[*].middleware.datetime = "2018-01-17 13:44:00"
*.node[*].middleware.services = xmldoc("services.xml")
*.node[*].middleware.CaService.withDccRestriction = false
*.node[*].vanetza.dcc.TransmitRateControl = "NoTransmitRateControl"
*.node[*].middleware.CaService.fixedRate = true
*.node[*].middleware.CaService.minInterval = 0.1 s
*.node[*].middleware.CaService.maxInterval = 1 s
**.lteNic.phy.channelModel = xmldoc("mcs7_config_channel.xml")
**.feedbackComputation = xmldoc("mcs7_config_channel.xml")
*.traci.launcher.sumocfg = "highway/medium/medium.sumo.cfg"
output-vector-file = "/hdd/results-analysis/data/omnet/mcs7/${configname}/${runid}.vec"
output-scalar-file = "/hdd/results-analysis/data/omnet/mcs7/${configname}/${runid}.sca"

[Config MCS7-slow-10dbm]
*.node[*].d2dCapable = true
*.node[*].mode4D2D = true
**.amcMode = "D2D"
*.node[*].nicType = "LteNicVUeMode4"
*.node[*].lteNic.d2dCapable = true
*.node[*].lteNic.pdcpRrc.ipBased = false
*.node[*].lteNic.rlc.ipBased = false
*.node[*].lteNic.mac.subchannelSize = 14
*.node[*].lteNic.mac.numSubchannels = 2
*.node[*].lteNic.mac.probResourceKeep = 0.4
*.node[*].lteNic.mac.useCBR = false
*.node[*].lteNic.mac.packetDropping = false
*.node[*].lteNic.mac.reselectAfter = 1
*.node[*].lteNic.mac.adjacencyPSCCHPSSCH = true
*.node[*].lteNic.rlc.um.packetSize = 190
*.node[*].lteNic.phy.subchannelSize = 14
*.node[*].lteNic.phy.numSubchannels = 2
*.node[*].lteNic.phy.selectionWindowStartingSubframe = 1
*.node[*].lteNic.phy.adjacencyPSCCHPSSCH = true
*.node[*].lteNic.phy.pStep = 100
*.node[*].lteNic.phy.thresholdRSSI = 11
*.node[*].lteNic.phy.d2dTxPower = 20
**.usePreconfiguredTxParams = true
*.node[*].application.typename = "artery.lte.Mode4Application"
*.node[*].application.middleware.updateInterval = 0.1s
*.node[*].application.middleware.datetime = "2013-06-01 12:35:00"
*.node[*].application.middleware.services = xmldoc("services.xml")
**.lteNic.mac.txConfig = xmldoc("mcs7_sidelink_config.xml")
*.node[*].middleware.updateInterval = 0.1 s
*.node[*].middleware.datetime = "2018-01-17 13:44:00"
*.node[*].middleware.services = xmldoc("services.xml")
*.node[*].middleware.CaService.withDccRestriction = false
*.node[*].vanetza.dcc.TransmitRateControl = "NoTransmitRateControl"
*.node[*].middleware.CaService.fixedRate = true
*.node[*].middleware.CaService.minInterval = 0.1 s
*.node[*].middleware.CaService.maxInterval = 1 s
**.lteNic.phy.channelModel = xmldoc("mcs7_config_channel.xml")
**.feedbackComputation = xmldoc("mcs7_config_channel.xml")
*.traci.launcher.sumocfg = "highway/slow/slow.sumo.cfg"
output-vector-file = "/hdd/results-analysis/data/omnet/mcs7/${configname}/${runid}.vec"
output-scalar-file = "/hdd/results-analysis/data/omnet/mcs7/${configname}/${runid}.sca"

[Config MCS7-slow-20dbm]
*.node[*].d2dCapable = true
*.node[*].mode4D2D = true
**.amcMode = "D2D"
*.node[*].nicType = "LteNicVUeMode4"
*.node[*].lteNic.d2dCapable = true
*.node[*].lteNic.pdcpRrc.ipBased = false
*.node[*].lteNic.rlc.ipBased = false
*.node[*].lteNic.mac.subchannelSize = 14
*.node[*].lteNic.mac.numSubchannels = 2
*.node[*].lteNic.mac.probResourceKeep = 0.4
*.node[*].lteNic.mac.useCBR = false
*.node[*].lteNic.mac.packetDropping = false
*.node[*].lteNic.mac.reselectAfter = 1
*.node[*].lteNic.mac.adjacencyPSCCHPSSCH = true
*.node[*].lteNic.rlc.um.packetSize = 190
*.node[*].lteNic.phy.subchannelSize = 14
*.node[*].lteNic.phy.numSubchannels = 2
*.node[*].lteNic.phy.selectionWindowStartingSubframe = 1
*.node[*].lteNic.phy.adjacencyPSCCHPSSCH = true
*.node[*].lteNic.phy.pStep = 100
*.node[*].lteNic.phy.thresholdRSSI = 11
*.node[*].lteNic.phy.d2dTxPower = 20
**.usePreconfiguredTxParams = true
*.node[*].application.typename = "artery.lte.Mode4Application"
*.node[*].application.middleware.updateInterval = 0.1s
*.node[*].application.middleware.datetime = "2013-06-01 12:35:00"
*.node[*].application.middleware.services = xmldoc("services.xml")
**.lteNic.mac.txConfig = xmldoc("mcs7_sidelink_config.xml")
*.node[*].middleware.updateInterval = 0.1 s
*.node[*].middleware.datetime = "2018-01-17 13:44:00"
*.node[*].middleware.services = xmldoc("services.xml")
*.node[*].middleware.CaService.withDccRestriction = false
*.node[*].vanetza.dcc.TransmitRateControl = "NoTransmitRateControl"
*.node[*].middleware.CaService.fixedRate = true
*.node[*].middleware.CaService.minInterval = 0.1 s
*.node[*].middleware.CaService.maxInterval = 1 s
**.lteNic.phy.channelModel = xmldoc("mcs7_config_channel.xml")
**.feedbackComputation = xmldoc("mcs7_config_channel.xml")
*.traci.launcher.sumocfg = "highway/slow/slow.sumo.cfg"
output-vector-file = "/hdd/results-analysis/data/omnet/mcs7/${configname}/${runid}.vec"
output-scalar-file = "/hdd/results-analysis/data/omnet/mcs7/${configname}/${runid}.sca"

[Config MCS7-slow-23dbm]
*.node[*].d2dCapable = true
*.node[*].mode4D2D = true
**.amcMode = "D2D"
*.node[*].nicType = "LteNicVUeMode4"
*.node[*].lteNic.d2dCapable = true
*.node[*].lteNic.pdcpRrc.ipBased = false
*.node[*].lteNic.rlc.ipBased = false
*.node[*].lteNic.mac.subchannelSize = 14
*.node[*].lteNic.mac.numSubchannels = 2
*.node[*].lteNic.mac.probResourceKeep = 0.4
*.node[*].lteNic.mac.useCBR = false
*.node[*].lteNic.mac.packetDropping = false
*.node[*].lteNic.mac.reselectAfter = 1
*.node[*].lteNic.mac.adjacencyPSCCHPSSCH = true
*.node[*].lteNic.rlc.um.packetSize = 190
*.node[*].lteNic.phy.subchannelSize = 14
*.node[*].lteNic.phy.numSubchannels = 2
*.node[*].lteNic.phy.selectionWindowStartingSubframe = 1
*.node[*].lteNic.phy.adjacencyPSCCHPSSCH = true
*.node[*].lteNic.phy.pStep = 100
*.node[*].lteNic.phy.thresholdRSSI = 11
*.node[*].lteNic.phy.d2dTxPower = 23
**.usePreconfiguredTxParams = true
*.node[*].application.typename = "artery.lte.Mode4Application"
*.node[*].application.middleware.updateInterval = 0.1s
*.node[*].application.middleware.datetime = "2013-06-01 12:35:00"
*.node[*].application.middleware.services = xmldoc("services.xml")
**.lteNic.mac.txConfig = xmldoc("mcs7_sidelink_config.xml")
*.node[*].middleware.updateInterval = 0.1 s
*.node[*].middleware.datetime = "2018-01-17 13:44:00"
*.node[*].middleware.services = xmldoc("services.xml")
*.node[*].middleware.CaService.withDccRestriction = false
*.node[*].vanetza.dcc.TransmitRateControl = "NoTransmitRateControl"
*.node[*].middleware.CaService.fixedRate = true
*.node[*].middleware.CaService.minInterval = 0.1 s
*.node[*].middleware.CaService.maxInterval = 1 s
**.lteNic.phy.channelModel = xmldoc("mcs7_config_channel.xml")
**.feedbackComputation = xmldoc("mcs7_config_channel.xml")
*.traci.launcher.sumocfg = "highway/slow/slow.sumo.cfg"
output-vector-file = "/hdd/results-analysis/data/omnet/mcs7/${configname}/${runid}.vec"
output-scalar-file = "/hdd/results-analysis/data/omnet/mcs7/${configname}/${runid}.sca"

[Config MCS9-fast-20dbm]
*.node[*].d2dCapable = true
*.node[*].mode4D2D = true
**.amcMode = "D2D"
*.node[*].nicType = "LteNicVUeMode4"
*.node[*].lteNic.d2dCapable = true
*.node[*].lteNic.pdcpRrc.ipBased = false
*.node[*].lteNic.rlc.ipBased = false
*.node[*].lteNic.mac.subchannelSize = 12
*.node[*].lteNic.mac.numSubchannels = 4
*.node[*].lteNic.mac.probResourceKeep = 0.4
*.node[*].lteNic.mac.useCBR = false
*.node[*].lteNic.mac.packetDropping = false
*.node[*].lteNic.mac.reselectAfter = 1
*.node[*].lteNic.mac.adjacencyPSCCHPSSCH = true
*.node[*].lteNic.rlc.um.packetSize = 190
*.node[*].lteNic.phy.subchannelSize = 12
*.node[*].lteNic.phy.numSubchannels = 4
*.node[*].lteNic.phy.selectionWindowStartingSubframe = 1
*.node[*].lteNic.phy.adjacencyPSCCHPSSCH = true
*.node[*].lteNic.phy.pStep = 100
*.node[*].lteNic.phy.thresholdRSSI = 11
*.node[*].lteNic.phy.d2dTxPower = 20
**.usePreconfiguredTxParams = true
*.node[*].application.typename = "artery.lte.Mode4Application"
*.node[*].application.middleware.updateInterval = 0.1s
*.node[*].application.middleware.datetime = "2013-06-01 12:35:00"
*.node[*].application.middleware.services = xmldoc("services.xml")
**.lteNic.mac.txConfig = xmldoc("mcs9_sidelink_config.xml")
*.node[*].middleware.updateInterval = 0.1 s
*.node[*].middleware.datetime = "2018-01-17 13:44:00"
*.node[*].middleware.services = xmldoc("services.xml")
*.node[*].middleware.CaService.withDccRestriction = false
*.node[*].vanetza.dcc.TransmitRateControl = "NoTransmitRateControl"
*.node[*].middleware.CaService.fixedRate = true
*.node[*].middleware.CaService.minInterval = 0.1 s
*.node[*].middleware.CaService.maxInterval = 1 s
**.lteNic.phy.channelModel = xmldoc("mcs9_config_channel.xml")
**.feedbackComputation = xmldoc("mcs9_config_channel.xml")
*.traci.launcher.sumocfg = "highway/fast/fast.sumo.cfg"
output-vector-file = "/hdd/results-analysis/data/omnet/mcs9/${configname}/${runid}.vec"
output-scalar-file = "/hdd/results-analysis/data/omnet/mcs9/${configname}/${runid}.sca"

[Config MCS9-fast-23dbm]
*.node[*].d2dCapable = true
*.node[*].mode4D2D = true
**.amcMode = "D2D"
*.node[*].nicType = "LteNicVUeMode4"
*.node[*].lteNic.d2dCapable = true
*.node[*].lteNic.pdcpRrc.ipBased = false
*.node[*].lteNic.rlc.ipBased = false
*.node[*].lteNic.mac.subchannelSize = 12
*.node[*].lteNic.mac.numSubchannels = 4
*.node[*].lteNic.mac.probResourceKeep = 0.4
*.node[*].lteNic.mac.useCBR = false
*.node[*].lteNic.mac.packetDropping = false
*.node[*].lteNic.mac.reselectAfter = 1
*.node[*].lteNic.mac.adjacencyPSCCHPSSCH = true
*.node[*].lteNic.rlc.um.packetSize = 190
*.node[*].lteNic.phy.subchannelSize = 12
*.node[*].lteNic.phy.numSubchannels = 4
*.node[*].lteNic.phy.selectionWindowStartingSubframe = 1
*.node[*].lteNic.phy.adjacencyPSCCHPSSCH = true
*.node[*].lteNic.phy.pStep = 100
*.node[*].lteNic.phy.thresholdRSSI = 11
*.node[*].lteNic.phy.d2dTxPower = 23
**.usePreconfiguredTxParams = true
*.node[*].application.typename = "artery.lte.Mode4Application"
*.node[*].application.middleware.updateInterval = 0.1s
*.node[*].application.middleware.datetime = "2013-06-01 12:35:00"
*.node[*].application.middleware.services = xmldoc("services.xml")
**.lteNic.mac.txConfig = xmldoc("mcs9_sidelink_config.xml")
*.node[*].middleware.updateInterval = 0.1 s
*.node[*].middleware.datetime = "2018-01-17 13:44:00"
*.node[*].middleware.services = xmldoc("services.xml")
*.node[*].middleware.CaService.withDccRestriction = false
*.node[*].vanetza.dcc.TransmitRateControl = "NoTransmitRateControl"
*.node[*].middleware.CaService.fixedRate = true
*.node[*].middleware.CaService.minInterval = 0.1 s
*.node[*].middleware.CaService.maxInterval = 1 s
**.lteNic.phy.channelModel = xmldoc("mcs9_config_channel.xml")
**.feedbackComputation = xmldoc("mcs9_config_channel.xml")
*.traci.launcher.sumocfg = "highway/fast/fast.sumo.cfg"
output-vector-file = "/hdd/results-analysis/data/omnet/mcs9/${configname}/${runid}.vec"
output-scalar-file = "/hdd/results-analysis/data/omnet/mcs9/${configname}/${runid}.sca"

[Config MCS9-medium-20dbm]
*.node[*].d2dCapable = true
*.node[*].mode4D2D = true
**.amcMode = "D2D"
*.node[*].nicType = "LteNicVUeMode4"
*.node[*].lteNic.d2dCapable = true
*.node[*].lteNic.pdcpRrc.ipBased = false
*.node[*].lteNic.rlc.ipBased = false
*.node[*].lteNic.mac.subchannelSize = 12
*.node[*].lteNic.mac.numSubchannels = 4
*.node[*].lteNic.mac.probResourceKeep = 0.4
*.node[*].lteNic.mac.useCBR = false
*.node[*].lteNic.mac.packetDropping = false
*.node[*].lteNic.mac.reselectAfter = 1
*.node[*].lteNic.mac.adjacencyPSCCHPSSCH = true
*.node[*].lteNic.rlc.um.packetSize = 190
*.node[*].lteNic.phy.subchannelSize = 12
*.node[*].lteNic.phy.numSubchannels = 4