<?xml version="1.0" encoding="UTF-8"?>

<!-- generated on 2023-11-15 17:48:23 by Eclipse SUMO netedit Version 1.18.0
<configuration xmlns:xsi="http://www.w3.org/2001/XMLSchema-instance" xsi:noNamespaceSchemaLocation="http://sumo.dlr.de/xsd/neteditConfiguration.xsd">

    <input>
        <sumo-net-file value="/home/yuki/omnetpp-5.4.1/OpenCV2X/scenarios/manhattan/myroad/3gppTrafficLight.net.xml"/>
    </input>

    <output>
        <output-file value="/home/yuki/omnetpp-5.4.1/OpenCV2X/scenarios/manhattan/myroad/3gppTrafficLight.net.xml"/>
    </output>

    <processing>
        <geometry.min-radius.fix.railways value="false"/>
        <geometry.max-grade.fix value="false"/>
        <offset.disable-normalization value="true"/>
        <lefthand value="0"/>
    </processing>

    <junctions>
        <no-turnarounds value="true"/>
        <junctions.corner-detail value="5"/>
        <junctions.limit-turn-speed value="-1.00"/>
        <rectangular-lane-cut value="0"/>
    </junctions>

    <pedestrian>
        <walkingareas value="0"/>
    </pedestrian>

</configuration>
-->

<net version="1.16" junctionCornerDetail="5" xmlns:xsi="http://www.w3.org/2001/XMLSchema-instance" xsi:noNamespaceSchemaLocation="http://sumo.dlr.de/xsd/net_file.xsd">

    <location netOffset="0.00,0.00" convBoundary="0.00,0.00,750.00,1299.00" origBoundary="0.00,0.00,750.00,1299.00" projParameter="!"/>

    <edge id=":A0_0" function="internal">
        <lane id=":A0_0_0" index="0" speed="16.67" length="19.76" width="3.50" shape="-5.25,7.00 -4.48,1.64 -2.19,-2.19 1.64,-4.48 7.00,-5.25"/>
        <lane id=":A0_0_1" index="1" speed="16.67" length="14.11" width="3.50" shape="-1.75,7.00 -1.20,3.17 0.44,0.44 3.17,-1.20 7.00,-1.75"/>
    </edge>
    <edge id=":A0_2" function="internal">
        <lane id=":A0_2_0" index="0" speed="16.67" length="2.82" width="3.50" shape="7.00,5.25 6.23,5.36 5.69,5.69 5.36,6.23 5.25,7.00"/>
        <lane id=":A0_2_1" index="1" speed="16.67" length="8.47" width="3.50" shape="7.00,1.75 4.70,2.08 3.06,3.06 2.08,4.70 1.75,7.00"/>
    </edge>
    <edge id=":A1_0" function="internal">
        <lane id=":A1_0_0" index="0" speed="16.67" length="22.00" width="3.50" shape="-5.25,444.00 -5.25,422.00"/>
        <lane id=":A1_0_1" index="1" speed="16.67" length="22.00" width="3.50" shape="-1.75,444.00 -1.75,422.00"/>
    </edge>
    <edge id=":A1_2" function="internal">
        <lane id=":A1_2_0" index="0" speed="16.67" length="5.63" width="3.50" shape="-1.75,444.00 -0.95,438.42"/>
    </edge>
    <edge id=":A1_8" function="internal">
        <lane id=":A1_8_0" index="0" speed="16.67" length="14.93" width="3.50" shape="-0.95,438.42 1.44,434.44 5.42,432.05 11.00,431.25"/>
    </edge>
    <edge id=":A1_3" function="internal">
        <lane id=":A1_3_0" index="0" speed="16.67" length="9.27" width="3.50" shape="11.00,438.25 8.48,438.61 6.69,439.69 5.61,441.48 5.25,444.00"/>
    </edge>
    <edge id=":A1_4" function="internal">
        <lane id=":A1_4_0" index="0" speed="16.67" length="20.56" width="3.50" shape="11.00,434.75 5.42,433.95 1.44,431.56 -0.95,427.58 -1.75,422.00"/>
    </edge>
    <edge id=":A1_5" function="internal">
        <lane id=":A1_5_0" index="0" speed="16.67" length="9.27" width="3.50" shape="5.25,422.00 5.61,424.52 6.69,426.31 8.48,427.39 11.00,427.75"/>
    </edge>
    <edge id=":A1_6" function="internal">
        <lane id=":A1_6_0" index="0" speed="16.67" length="22.00" width="3.50" shape="5.25,422.00 5.25,444.00"/>
        <lane id=":A1_6_1" index="1" speed="16.67" length="22.00" width="3.50" shape="1.75,422.00 1.75,444.00"/>
    </edge>
    <edge id=":A2_0" function="internal">
        <lane id=":A2_0_0" index="0" speed="16.67" length="21.40" width="3.50" shape="-5.25,876.40 -5.25,855.00"/>
        <lane id=":A2_0_1" index="1" speed="16.67" length="21.40" width="3.50" shape="-1.75,876.40 -1.75,855.00"/>
    </edge>
    <edge id=":A2_2" function="internal">
        <lane id=":A2_2_0" index="0" speed="16.67" length="5.38" width="3.50" shape="-1.75,876.40 -0.95,871.08"/>
    </edge>
    <edge id=":A2_8" function="internal">
        <lane id=":A2_8_0" index="0" speed="16.67" length="14.71" width="3.50" shape="-0.95,871.08 1.44,867.29 5.42,865.01 11.00,864.25"/>
    </edge>
    <edge id=":A2_3" function="internal">
        <lane id=":A2_3_0" index="0" speed="16.67" length="9.15" width="3.50" shape="11.00,870.80 8.48,871.15 6.69,872.20 5.61,873.95 5.25,876.40"/>
    </edge>
    <edge id=":A2_4" function="internal">
        <lane id=":A2_4_0" index="0" speed="16.67" length="20.44" width="3.50" shape="11.00,867.60 5.42,866.81 1.44,864.45 -0.95,860.51 -1.75,855.00"/>
    </edge>
    <edge id=":A2_5" function="internal">
        <lane id=":A2_5_0" index="0" speed="16.67" length="9.27" width="3.50" shape="5.25,855.00 5.61,857.52 6.69,859.31 8.48,860.39 11.00,860.75"/>
    </edge>
    <edge id=":A2_6" function="internal">
        <lane id=":A2_6_0" index="0" speed="16.67" length="21.40" width="3.50" shape="5.25,855.00 5.25,876.40"/>
        <lane id=":A2_6_1" index="1" speed="16.67" length="21.40" width="3.50" shape="1.75,855.00 1.75,876.40"/>
    </edge>
    <edge id=":A3_0" function="internal">
        <lane id=":A3_0_0" index="0" speed="16.67" length="19.76" width="3.50" shape="7.00,1304.25 1.64,1303.48 -2.19,1301.19 -4.48,1297.36 -5.25,1292.00"/>
        <lane id=":A3_0_1" index="1" speed="16.67" length="14.11" width="3.50" shape="7.00,1300.75 3.17,1300.20 0.44,1298.56 -1.20,1295.83 -1.75,1292.00"/>
    </edge>
    <edge id=":A3_2" function="internal">
        <lane id=":A3_2_0" index="0" speed="16.67" length="2.82" width="3.50" shape="5.25,1292.00 5.36,1292.77 5.69,1293.31 6.23,1293.64 7.00,1293.75"/>
        <lane id=":A3_2_1" index="1" speed="16.67" length="8.47" width="3.50" shape="1.75,1292.00 2.08,1294.30 3.06,1295.94 4.70,1296.92 7.00,1297.25"/>
    </edge>
    <edge id=":B0_0" function="internal">
        <lane id=":B0_0_0" index="0" speed="16.67" length="9.27" width="3.50" shape="244.75,11.00 244.39,8.48 243.31,6.69 241.52,5.61 239.00,5.25"/>
    </edge>
    <edge id=":B0_1" function="internal">
        <lane id=":B0_1_0" index="0" speed="16.67" length="20.56" width="3.50" shape="248.25,11.00 249.05,5.42 251.44,1.44 255.42,-0.95 261.00,-1.75"/>
    </edge>
    <edge id=":B0_2" function="internal">
        <lane id=":B0_2_0" index="0" speed="16.67" length="9.27" width="3.50" shape="261.00,5.25 258.48,5.61 256.69,6.69 255.61,8.48 255.25,11.00"/>
    </edge>
    <edge id=":B0_3" function="internal">
        <lane id=":B0_3_0" index="0" speed="16.67" length="22.00" width="3.50" shape="261.00,5.25 239.00,5.25"/>
        <lane id=":B0_3_1" index="1" speed="16.67" length="22.00" width="3.50" shape="261.00,1.75 239.00,1.75"/>
    </edge>
    <edge id=":B0_5" function="internal">
        <lane id=":B0_5_0" index="0" speed="16.67" length="22.00" width="3.50" shape="239.00,-5.25 261.00,-5.25"/>
        <lane id=":B0_5_1" index="1" speed="16.67" length="22.00" width="3.50" shape="239.00,-1.75 261.00,-1.75"/>
    </edge>
    <edge id=":B0_7" function="internal">
        <lane id=":B0_7_0" index="0" speed="16.67" length="5.63" width="3.50" shape="239.00,-1.75 244.58,-0.95"/>
    </edge>
    <edge id=":B0_8" function="internal">
        <lane id=":B0_8_0" index="0" speed="16.67" length="14.93" width="3.50" shape="244.58,-0.95 248.56,1.44 250.95,5.42 251.75,11.00"/>
    </edge>
    <edge id=":B1_0" function="internal">
        <lane id=":B1_0_0" index="0" speed="16.67" length="9.27" width="3.50" shape="244.75,444.00 244.39,441.48 243.31,439.69 241.52,438.61 239.00,438.25"/>
    </edge>
    <edge id=":B1_1" function="internal">
        <lane id=":B1_1_0" index="0" speed="16.67" length="22.00" width="3.50" shape="244.75,444.00 244.75,422.00"/>
        <lane id=":B1_1_1" index="1" speed="16.67" length="22.00" width="3.50" shape="248.25,444.00 248.25,422.00"/>
    </edge>
    <edge id=":B1_3" function="internal">
        <lane id=":B1_3_0" index="0" speed="16.67" length="5.63" width="3.50" shape="248.25,444.00 249.05,438.42"/>
    </edge>
    <edge id=":B1_16" function="internal">
        <lane id=":B1_16_0" index="0" speed="16.67" length="14.93" width="3.50" shape="249.05,438.42 251.44,434.44 255.42,432.05 261.00,431.25"/>
    </edge>
    <edge id=":B1_4" function="internal">
        <lane id=":B1_4_0" index="0" speed="16.67" length="9.27" width="3.50" shape="261.00,438.25 258.48,438.61 256.69,439.69 255.61,441.48 255.25,444.00"/>
    </edge>
    <edge id=":B1_5" function="internal">
        <lane id=":B1_5_0" index="0" speed="16.67" length="22.00" width="3.50" shape="261.00,438.25 239.00,438.25"/>
        <lane id=":B1_5_1" index="1" speed="16.67" length="22.00" width="3.50" shape="261.00,434.75 239.00,434.75"/>
    </edge>
    <edge id=":B1_7" function="internal">
        <lane id=":B1_7_0" index="0" speed="16.67" length="20.56" width="3.50" shape="261.00,434.75 255.42,433.95 251.44,431.56 249.05,427.58 248.25,422.00"/>
    </edge>
    <edge id=":B1_8" function="internal">
        <lane id=":B1_8_0" index="0" speed="16.67" length="9.27" width="3.50" shape="255.25,422.00 255.61,424.52 256.69,426.31 258.48,427.39 261.00,427.75"/>
    </edge>
    <edge id=":B1_9" function="internal">
        <lane id=":B1_9_0" index="0" speed="16.67" length="22.00" width="3.50" shape="255.25,422.00 255.25,444.00"/>
        <lane id=":B1_9_1" index="1" speed="16.67" length="22.00" width="3.50" shape="251.75,422.00 251.75,444.00"/>
    </edge>
    <edge id=":B1_11" function="internal">
        <lane id=":B1_11_0" index="0" speed="16.67" length="5.63" width="3.50" shape="251.75,422.00 250.95,427.58"/>
    </edge>
    <edge id=":B1_17" function="internal">
        <lane id=":B1_17_0" index="0" speed="16.67" length="14.93" width="3.50" shape="250.95,427.58 248.56,431.56 244.58,433.95 239.00,434.75"/>
    </edge>
    <edge id=":B1_12" function="internal">
        <lane id=":B1_12_0" index="0" speed="16.67" length="9.27" width="3.50" shape="239.00,427.75 241.52,427.39 243.31,426.31 244.39,424.52 244.75,422.00"/>
    </edge>
    <edge id=":B1_13" function="internal">
        <lane id=":B1_13_0" index="0" speed="16.67" length="22.00" width="3.50" shape="239.00,427.75 261.00,427.75"/>
        <lane id=":B1_13_1" index="1" speed="16.67" length="22.00" width="3.50" shape="239.00,431.25 261.00,431.25"/>
    </edge>
    <edge id=":B1_15" function="internal">
        <lane id=":B1_15_0" index="0" speed="16.67" length="20.56" width="3.50" shape="239.00,431.25 244.58,432.05 248.56,434.44 250.95,438.42 251.75,444.00"/>
    </edge>
    <edge id=":B2_0" function="internal">
        <lane id=":B2_0_0" index="0" speed="16.67" length="9.64" shape="244.75,877.00 244.39,874.29 243.31,872.35 241.52,871.19 239.00,870.80"/>
    </edge>
    <edge id=":B2_1" function="internal">
        <lane id=":B2_1_0" index="0" speed="16.67" length="22.00" width="3.50" shape="244.75,877.00 244.75,855.00"/>
        <lane id=":B2_1_1" index="1" speed="16.67" length="22.00" width="3.50" shape="248.25,877.00 248.25,855.00"/>
    </edge>
    <edge id=":B2_3" function="internal">
        <lane id=":B2_3_0" index="0" speed="16.67" length="5.63" width="3.50" shape="248.25,877.00 249.05,871.42"/>
    </edge>
    <edge id=":B2_16" function="internal">
        <lane id=":B2_16_0" index="0" speed="16.67" length="14.93" width="3.50" shape="249.05,871.42 251.44,867.44 255.42,865.05 261.00,864.25"/>
    </edge>
    <edge id=":B2_4" function="internal">
        <lane id=":B2_4_0" index="0" speed="16.67" length="9.27" width="3.50" shape="261.00,871.25 258.48,871.61 256.69,872.69 255.61,874.48 255.25,877.00"/>
    </edge>
    <edge id=":B2_5" function="internal">
        <lane id=":B2_5_0" index="0" speed="16.67" length="22.00" shape="261.00,871.25 239.00,870.80"/>
        <lane id=":B2_5_1" index="1" speed="16.67" length="22.00" shape="261.00,867.75 239.00,867.60"/>
    </edge>
    <edge id=":B2_7" function="internal">
        <lane id=":B2_7_0" index="0" speed="16.67" length="5.63" width="3.50" shape="261.00,867.75 255.42,866.95"/>
    </edge>
    <edge id=":B2_17" function="internal">
        <lane id=":B2_17_0" index="0" speed="16.67" length="14.93" width="3.50" shape="255.42,866.95 251.44,864.56 249.05,860.58 248.25,855.00"/>
    </edge>
    <edge id=":B2_8" function="internal">
        <lane id=":B2_8_0" index="0" speed="16.67" length="9.27" width="3.50" shape="255.25,855.00 255.61,857.52 256.69,859.31 258.48,860.39 261.00,860.75"/>
    </edge>
    <edge id=":B2_9" function="internal">
        <lane id=":B2_9_0" index="0" speed="16.67" length="22.00" width="3.50" shape="255.25,855.00 255.25,877.00"/>
        <lane id=":B2_9_1" index="1" speed="16.67" length="22.00" width="3.50" shape="251.75,855.00 251.75,877.00"/>
    </edge>
    <edge id=":B2_11" function="internal">
        <lane id=":B2_11_0" index="0" speed="16.67" length="5.57" shape="251.75,855.00 250.95,860.51"/>
    </edge>
    <edge id=":B2_18" function="internal">
        <lane id=":B2_18_0" index="0" speed="16.67" length="14.87" shape="250.95,860.51 248.56,864.45 244.58,866.81 239.00,867.60"/>
    </edge>
    <edge id=":B2_12" function="internal">
        <lane id=":B2_12_0" index="0" speed="16.67" length="9.27" width="3.50" shape="239.00,860.75 241.52,860.39 243.31,859.31 244.39,857.52 244.75,855.00"/>
    </edge>
    <edge id=":B2_13" function="internal">
        <lane id=":B2_13_0" index="0" speed="16.67" length="22.00" width="3.50" shape="239.00,860.75 261.00,860.75"/>
        <lane id=":B2_13_1" index="1" speed="16.67" length="22.00" width="3.50" shape="239.00,864.25 261.00,864.25"/>
    </edge>
    <edge id=":B2_15" function="internal">
        <lane id=":B2_15_0" index="0" speed="16.67" length="5.63" width="3.50" shape="239.00,864.25 244.58,865.05"/>
    </edge>
    <edge id=":B2_19" function="internal">
        <lane id=":B2_19_0" index="0" speed="16.67" length="14.93" width="3.50" shape="244.58,865.05 248.56,867.44 250.95,871.42 251.75,877.00"/>
    </edge>
    <edge id=":B3_0" function="internal">
        <lane id=":B3_0_0" index="0" speed="16.67" length="22.00" width="3.50" shape="261.00,1304.25 239.00,1304.25"/>
        <lane id=":B3_0_1" index="1" speed="16.67" length="22.00" width="3.50" shape="261.00,1300.75 239.00,1300.75"/>
    </edge>
    <edge id=":B3_2" function="internal">
        <lane id=":B3_2_0" index="0" speed="16.67" length="5.63" width="3.50" shape="261.00,1300.75 255.42,1299.95"/>
    </edge>
    <edge id=":B3_8" function="internal">
        <lane id=":B3_8_0" index="0" speed="16.67" length="14.93" width="3.50" shape="255.42,1299.95 251.44,1297.56 249.05,1293.58 248.25,1288.00"/>
    </edge>
    <edge id=":B3_3" function="internal">
        <lane id=":B3_3_0" index="0" speed="16.67" length="9.27" width="3.50" shape="255.25,1288.00 255.61,1290.52 256.69,1292.31 258.48,1293.39 261.00,1293.75"/>
    </edge>
    <edge id=":B3_4" function="internal">
        <lane id=":B3_4_0" index="0" speed="16.67" length="20.56" width="3.50" shape="251.75,1288.00 250.95,1293.58 248.56,1297.56 244.58,1299.95 239.00,1300.75"/>
    </edge>
    <edge id=":B3_5" function="internal">
        <lane id=":B3_5_0" index="0" speed="16.67" length="9.27" width="3.50" shape="239.00,1293.75 241.52,1293.39 243.31,1292.31 244.39,1290.52 244.75,1288.00"/>
    </edge>
    <edge id=":B3_6" function="internal">
        <lane id=":B3_6_0" index="0" speed="16.67" length="22.00" width="3.50" shape="239.00,1293.75 261.00,1293.75"/>
        <lane id=":B3_6_1" index="1" speed="16.67" length="22.00" width="3.50" shape="239.00,1297.25 261.00,1297.25"/>
    </edge>
    <edge id=":C0_0" function="internal">
        <lane id=":C0_0_0" index="0" speed="16.67" length="9.27" width="3.50" shape="494.75,11.00 494.39,8.48 493.31,6.69 491.52,5.61 489.00,5.25"/>
    </edge>
    <edge id=":C0_1" function="internal">
        <lane id=":C0_1_0" index="0" speed="16.67" length="20.56" width="3.50" shape="498.25,11.00 499.05,5.42 501.44,1.44 505.42,-0.95 511.00,-1.75"/>
    </edge>
    <edge id=":C0_2" function="internal">
        <lane id=":C0_2_0" index="0" speed="16.67" length="9.27" width="3.50" shape="511.00,5.25 508.48,5.61 506.69,6.69 505.61,8.48 505.25,11.00"/>
    </edge>
    <edge id=":C0_3" function="internal">
        <lane id=":C0_3_0" index="0" speed="16.67" length="22.00" width="3.50" shape="511.00,5.25 489.00,5.25"/>
        <lane id=":C0_3_1" index="1" speed="16.67" length="22.00" width="3.50" shape="511.00,1.75 489.00,1.75"/>
    </edge>
    <edge id=":C0_5" function="internal">
        <lane id=":C0_5_0" index="0" speed="16.67" length="22.00" width="3.50" shape="489.00,-5.25 511.00,-5.25"/>
        <lane id=":C0_5_1" index="1" speed="16.67" length="22.00" width="3.50" shape="489.00,-1.75 511.00,-1.75"/>
    </edge>
    <edge id=":C0_7" function="internal">
        <lane id=":C0_7_0" index="0" speed="16.67" length="5.63" width="3.50" shape="489.00,-1.75 494.58,-0.95"/>
    </edge>
    <edge id=":C0_8" function="internal">
        <lane id=":C0_8_0" index="0" speed="16.67" length="14.93" width="3.50" shape="494.58,-0.95 498.56,1.44 500.95,5.42 501.75,11.00"/>
    </edge>
    <edge id=":C1_0" function="internal">
        <lane id=":C1_0_0" index="0" speed="16.67" length="9.27" width="3.50" shape="494.75,444.00 494.39,441.48 493.31,439.69 491.52,438.61 489.00,438.25"/>
    </edge>
    <edge id=":C1_1" function="internal">
        <lane id=":C1_1_0" index="0" speed="16.67" length="22.00" width="3.50" shape="494.75,444.00 494.75,422.00"/>
        <lane id=":C1_1_1" index="1" speed="16.67" length="22.00" width="3.50" shape="498.25,444.00 498.25,422.00"/>
    </edge>
    <edge id=":C1_3" function="internal">
        <lane id=":C1_3_0" index="0" speed="16.67" length="5.63" width="3.50" shape="498.25,444.00 499.05,438.42"/>
    </edge>
    <edge id=":C1_16" function="internal">
        <lane id=":C1_16_0" index="0" speed="16.67" length="14.93" width="3.50" shape="499.05,438.42 501.44,434.44 505.42,432.05 511.00,431.25"/>
    </edge>
    <edge id=":C1_4" function="internal">
        <lane id=":C1_4_0" index="0" speed="16.67" length="9.27" width="3.50" shape="511.00,438.25 508.48,438.61 506.69,439.69 505.61,441.48 505.25,444.00"/>
    </edge>
    <edge id=":C1_5" function="internal">
        <lane id=":C1_5_0" index="0" speed="16.67" length="22.00" width="3.50" shape="511.00,438.25 489.00,438.25"/>
        <lane id=":C1_5_1" index="1" speed="16.67" length="22.00" width="3.50" shape="511.00,434.75 489.00,434.75"/>
    </edge>
    <edge id=":C1_7" function="internal">
        <lane id=":C1_7_0" index="0" speed="16.67" length="20.56" width="3.50" shape="511.00,434.75 505.42,433.95 501.44,431.56 499.05,427.58 498.25,422.00"/>
    </edge>
    <edge id=":C1_8" function="internal">
        <lane id=":C1_8_0" index="0" speed="16.67" length="9.27" width="3.50" shape="505.25,422.00 505.61,424.52 506.69,426.31 508.48,427.39 511.00,427.75"/>
    </edge>
    <edge id=":C1_9" function="internal">
        <lane id=":C1_9_0" index="0" speed="16.67" length="22.00" width="3.50" shape="505.25,422.00 505.25,444.00"/>
        <lane id=":C1_9_1" index="1" speed="16.67" length="22.00" width="3.50" shape="501.75,422.00 501.75,444.00"/>
    </edge>
    <edge id=":C1_11" function="internal">
        <lane id=":C1_11_0" index="0" speed="16.67" length="5.63" width="3.50" shape="501.75,422.00 500.95,427.58"/>
    </edge>
    <edge id=":C1_17" function="internal">
        <lane id=":C1_17_0" index="0" speed="16.67" length="14.93" width="3.50" shape="500.95,427.58 498.56,431.56 494.58,433.95 489.00,434.75"/>
    </edge>
    <edge id=":C1_12" function="internal">
        <lane id=":C1_12_0" index="0" speed="16.67" length="9.27" width="3.50" shape="489.00,427.75 491.52,427.39 493.31,426.31 494.39,424.52 494.75,422.00"/>
    </edge>
    <edge id=":C1_13" function="internal">
        <lane id=":C1_13_0" index="0" speed="16.67" length="22.00" width="3.50" shape="489.00,427.75 511.00,427.75"/>
        <lane id=":C1_13_1" index="1" speed="16.67" length="22.00" width="3.50" shape="489.00,431.25 511.00,431.25"/>
    </edge>
    <edge id=":C1_15" function="internal">
        <lane id=":C1_15_0" index="0" speed="16.67" length="20.56" width="3.50" shape="489.00,431.25 494.58,432.05 498.56,434.44 500.95,438.42 501.75,444.00"/>
    </edge>
    <edge id=":C2_0" function="internal">
        <lane id=":C2_0_0" index="0" speed="16.67" length="9.27" width="3.50" shape="494.75,877.00 494.39,874.48 493.31,872.69 491.52,871.61 489.00,871.25"/>
    </edge>
    <edge id=":C2_1" function="internal">
        <lane id=":C2_1_0" index="0" speed="16.67" length="22.00" width="3.50" shape="494.75,877.00 494.75,855.00"/>
        <lane id=":C2_1_1" index="1" speed="16.67" length="22.00" width="3.50" shape="498.25,877.00 498.25,855.00"/>
    </edge>
    <edge id=":C2_3" function="internal">
        <lane id=":C2_3_0" index="0" speed="16.67" length="5.63" width="3.50" shape="498.25,877.00 499.05,871.42"/>
    </edge>
    <edge id=":C2_16" function="internal">
        <lane id=":C2_16_0" index="0" speed="16.67" length="14.93" width="3.50" shape="499.05,871.42 501.44,867.44 505.42,865.05 511.00,864.25"/>
    </edge>
    <edge id=":C2_4" function="internal">
        <lane id=":C2_4_0" index="0" speed="16.67" length="9.27" width="3.50" shape="511.00,871.25 508.48,871.61 506.69,872.69 505.61,874.48 505.25,877.00"/>
    </edge>
    <edge id=":C2_5" function="internal">
        <lane id=":C2_5_0" index="0" speed="16.67" length="22.00" width="3.50" shape="511.00,871.25 489.00,871.25"/>
        <lane id=":C2_5_1" index="1" speed="16.67" length="22.00" width="3.50" shape="511.00,867.75 489.00,867.75"/>
    </edge>
    <edge id=":C2_7" function="internal">
        <lane id=":C2_7_0" index="0" speed="16.67" length="20.56" width="3.50" shape="511.00,867.75 505.42,866.95 501.44,864.56 499.05,860.58 498.25,855.00"/>
    </edge>
    <edge id=":C2_8" function="internal">
        <lane id=":C2_8_0" index="0" speed="16.67" length="9.27" width="3.50" shape="505.25,855.00 505.61,857.52 506.69,859.31 508.48,860.39 511.00,860.75"/>
    </edge>
    <edge id=":C2_9" function="internal">
        <lane id=":C2_9_0" index="0" speed="16.67" length="22.00" width="3.50" shape="505.25,855.00 505.25,877.00"/>
        <lane id=":C2_9_1" index="1" speed="16.67" length="22.00" width="3.50" shape="501.75,855.00 501.75,877.00"/>
    </edge>
    <edge id=":C2_11" function="internal">
        <lane id=":C2_11_0" index="0" speed="16.67" length="5.63" width="3.50" shape="501.75,855.00 500.95,860.58"/>
    </edge>
    <edge id=":C2_17" function="internal">
        <lane id=":C2_17_0" index="0" speed="16.67" length="14.93" width="3.50" shape="500.95,860.58 498.56,864.56 494.58,866.95 489.00,867.75"/>
    </edge>
    <edge id=":C2_12" function="internal">
        <lane id=":C2_12_0" index="0" speed="16.67" length="9.27" width="3.50" shape="489.00,860.75 491.52,860.39 493.31,859.31 494.39,857.52 494.75,855.00"/>
    </edge>
    <edge id=":C2_13" function="internal">
        <lane id=":C2_13_0" index="0" speed="16.67" length="22.00" width="3.50" shape="489.00,860.75 511.00,860.75"/>
        <lane id=":C2_13_1" index="1" speed="16.67" length="22.00" width="3.50" shape="489.00,864.25 511.00,864.25"/>
    </edge>
    <edge id=":C2_15" function="internal">
        <lane id=":C2_15_0" index="0" speed="16.67" length="20.56" width="3.50" shape="489.00,864.25 494.58,865.05 498.56,867.44 500.95,871.42 501.75,877.00"/>
    </edge>
    <edge id=":C3_0" function="internal">
        <lane id=":C3_0_0" index="0" speed="16.67" length="22.00" width="3.50" shape="511.00,1304.25 489.00,1304.25"/>
        <lane id=":C3_0_1" index="1" speed="16.67" length="22.00" width="3.50" shape="511.00,1300.75 489.00,1300.75"/>
    </edge>
    <edge id=":C3_2" function="internal">
        <lane id=":C3_2_0" index="0" speed="16.67" length="5.63" width="3.50" shape="511.00,1300.75 505.42,1299.95"/>
    </edge>
    <edge id=":C3_8" function="internal">
        <lane id=":C3_8_0" index="0" speed="16.67" length="14.93" width="3.50" shape="505.42,1299.95 501.44,1297.56 499.05,1293.58 498.25,1288.00"/>
    </edge>
    <edge id=":C3_3" function="internal">
        <lane id=":C3_3_0" index="0" speed="16.67" length="9.27" width="3.50" shape="505.25,1288.00 505.61,1290.52 506.69,1292.31 508.48,1293.39 511.00,1293.75"/>
    </edge>
    <edge id=":C3_4" function="internal">
        <lane id=":C3_4_0" index="0" speed="16.67" length="20.56" width="3.50" shape="501.75,1288.00 500.95,1293.58 498.56,1297.56 494.58,1299.95 489.00,1300.75"/>
    </edge>
    <edge id=":C3_5" function="internal">
        <lane id=":C3_5_0" index="0" speed="16.67" length="9.27" width="3.50" shape="489.00,1293.75 491.52,1293.39 493.31,1292.31 494.39,1290.52 494.75,1288.00"/>
    </edge>
    <edge id=":C3_6" function="internal">
        <lane id=":C3_6_0" index="0" speed="16.67" length="22.00" width="3.50" shape="489.00,1293.75 511.00,1293.75"/>
        <lane id=":C3_6_1" index="1" speed="16.67" length="22.00" width="3.50" shape="489.00,1297.25 511.00,1297.25"/>
    </edge>
    <edge id=":D0_0" function="internal">
        <lane id=":D0_0_0" index="0" speed="16.67" length="2.82" width="3.50" shape="744.75,7.00 744.64,6.23 744.31,5.69 743.77,5.36 743.00,5.25"/>
        <lane id=":D0_0_1" index="1" speed="16.67" length="8.47" width="3.50" shape="748.25,7.00 747.92,4.70 746.94,3.06 745.30,2.08 743.00,1.75"/>
    </edge>
    <edge id=":D0_2" function="internal">
        <lane id=":D0_2_0" index="0" speed="16.67" length="19.76" width="3.50" shape="743.00,-5.25 748.36,-4.48 752.19,-2.19 754.48,1.64 755.25,7.00"/>
        <lane id=":D0_2_1" index="1" speed="16.67" length="14.11" width="3.50" shape="743.00,-1.75 746.83,-1.20 749.56,0.44 751.20,3.17 751.75,7.00"/>
    </edge>
    <edge id=":D1_0" function="internal">
        <lane id=":D1_0_0" index="0" speed="16.67" length="9.27" width="3.50" shape="744.75,444.00 744.39,441.48 743.31,439.69 741.52,438.61 739.00,438.25"/>
    </edge>
    <edge id=":D1_1" function="internal">
        <lane id=":D1_1_0" index="0" speed="16.67" length="22.00" width="3.50" shape="744.75,444.00 744.75,422.00"/>
        <lane id=":D1_1_1" index="1" speed="16.67" length="22.00" width="3.50" shape="748.25,444.00 748.25,422.00"/>
    </edge>
    <edge id=":D1_3" function="internal">
        <lane id=":D1_3_0" index="0" speed="16.67" length="22.00" width="3.50" shape="755.25,422.00 755.25,444.00"/>
        <lane id=":D1_3_1" index="1" speed="16.67" length="22.00" width="3.50" shape="751.75,422.00 751.75,444.00"/>
    </edge>
    <edge id=":D1_5" function="internal">
        <lane id=":D1_5_0" index="0" speed="16.67" length="5.63" width="3.50" shape="751.75,422.00 750.95,427.58"/>
    </edge>
    <edge id=":D1_8" function="internal">
        <lane id=":D1_8_0" index="0" speed="16.67" length="14.93" width="3.50" shape="750.95,427.58 748.56,431.56 744.58,433.95 739.00,434.75"/>
    </edge>
    <edge id=":D1_6" function="internal">
        <lane id=":D1_6_0" index="0" speed="16.67" length="9.27" width="3.50" shape="739.00,427.75 741.52,427.39 743.31,426.31 744.39,424.52 744.75,422.00"/>
    </edge>
    <edge id=":D1_7" function="internal">
        <lane id=":D1_7_0" index="0" speed="16.67" length="20.56" width="3.50" shape="739.00,431.25 744.58,432.05 748.56,434.44 750.95,438.42 751.75,444.00"/>
    </edge>
    <edge id=":D2_0" function="internal">
        <lane id=":D2_0_0" index="0" speed="16.67" length="9.27" width="3.50" shape="744.75,877.00 744.39,874.48 743.31,872.69 741.52,871.61 739.00,871.25"/>
    </edge>
    <edge id=":D2_1" function="internal">
        <lane id=":D2_1_0" index="0" speed="16.67" length="22.00" width="3.50" shape="744.75,877.00 744.75,855.00"/>
        <lane id=":D2_1_1" index="1" speed="16.67" length="22.00" width="3.50" shape="748.25,877.00 748.25,855.00"/>
    </edge>
    <edge id=":D2_3" function="internal">
        <lane id=":D2_3_0" index="0" speed="16.67" length="22.00" width="3.50" shape="755.25,855.00 755.25,877.00"/>
        <lane id=":D2_3_1" index="1" speed="16.67" length="22.00" width="3.50" shape="751.75,855.00 751.75,877.00"/>
    </edge>
    <edge id=":D2_5" function="internal">
        <lane id=":D2_5_0" index="0" speed="16.67" length="5.63" width="3.50" shape="751.75,855.00 750.95,860.58"/>
    </edge>
    <edge id=":D2_8" function="internal">
        <lane id=":D2_8_0" index="0" speed="16.67" length="14.93" width="3.50" shape="750.95,860.58 748.56,864.56 744.58,866.95 739.00,867.75"/>
    </edge>
    <edge id=":D2_6" function="internal">
        <lane id=":D2_6_0" index="0" speed="16.67" length="9.27" width="3.50" shape="739.00,860.75 741.52,860.39 743.31,859.31 744.39,857.52 744.75,855.00"/>
    </edge>
    <edge id=":D2_7" function="internal">
        <lane id=":D2_7_0" index="0" speed="16.67" length="20.56" width="3.50" shape="739.00,864.25 744.58,865.05 748.56,867.44 750.95,871.42 751.75,877.00"/>
    </edge>
    <edge id=":D3_0" function="internal">
        <lane id=":D3_0_0" index="0" speed="16.67" length="19.76" width="3.50" shape="755.25,1292.00 754.48,1297.36 752.19,1301.19 748.36,1303.48 743.00,1304.25"/>
        <lane id=":D3_0_1" index="1" speed="16.67" length="14.11" width="3.50" shape="751.75,1292.00 751.20,1295.83 749.56,1298.56 746.83,1300.20 743.00,1300.75"/>
    </edge>
    <edge id=":D3_2" function="internal">
        <lane id=":D3_2_0" index="0" speed="16.67" length="2.82" width="3.50" shape="743.00,1293.75 743.77,1293.64 744.31,1293.31 744.64,1292.77 744.75,1292.00"/>
        <lane id=":D3_2_1" index="1" speed="16.67" length="8.47" width="3.50" shape="743.00,1297.25 745.30,1296.92 746.94,1295.94 747.92,1294.30 748.25,1292.00"/>
    </edge>

    <edge id="A0A1" from="A0" to="A1" priority="-1">
        <lane id="A0A1_0" index="0" speed="16.67" length="415.00" width="3.50" shape="5.25,7.00 5.25,422.00"/>