<?xml version="1.0" encoding="UTF-8"?>

<!-- generated on 2023-10-27 14:38:10 by Eclipse SUMO netedit Version 1.18.0
-->

<additional xmlns:xsi="http://www.w3.org/2001/XMLSchema-instance" xsi:noNamespaceSchemaLocation="http://sumo.dlr.de/xsd/additional_file.xsd">
    <!-- Shapes -->
    <poly id="0"  type="building" color="red" fill="1" layer="0.00" shape="10.000000,10.000000 240.000000,10.000000 240.000000,423.000000 10.000000,423.000000 10.000000,10.000000"/>
    <poly id="1"  type="building" color="red" fill="1" layer="0.00" shape="260.000000,10.000000 490.000000,10.000000 490.000000,423.000000 260.000000,423.000000 260.000000,10.000000"/>
    <poly id="2"  type="building" color="red" fill="1" layer="0.00" shape="510.000000,10.000000 740.000000,10.000000 740.000000,423.000000 510.000000,423.000000 510.000000,10.000000"/>

    <poly id="3"  type="building" color="red" fill="1" layer="0.00" shape="10.000000,443.000000 240.000000,443.000000 240.000000,856.000000 10.000000,856.000000 10.000000,443.000000"/>
    <poly id="4"  type="building" color="red" fill="1" layer="0.00" shape="260.000000,443.000000 490.000000,443.000000 490.000000,856.000000 260.000000,856.000000 260.000000,443.000000"/>
    <poly id="5"  type="building" color="red" fill="1" layer="0.00" shape="510.000000,443.000000 740.000000,443.000000 740.000000,856.000000 510.000000,856.000000 510.000000,443.000000"/>

    <poly id="6"  type="building" color="red" fill="1" layer="0.00" shape="10.000000,876.000000 240.000000,876.000000 240.000000,1289.000000 10.000000,1289.000000 10.000000,876.000000"/>
    <poly id="7"  type="building" color="red" fill="1" layer="0.00" shape="260.000000,876.000000 490.000000,876.000000 490.000000,1289.000000 260.000000,1289.000000 260.000000,876.000000"/>
    <poly id="8"  type="building" color="red" fill="1" layer="0.00" shape="510.000000,876.000000 740.000000,876.000000 740.000000,1289.000000 510.000000,1289.000000 510.000000,876.000000"/>
</additional>