<?xml version="1.0" encoding="UTF-8"?>

<!-- generated on 2023-10-27 14:38:10 by Eclipse SUMO netedit Version 1.18.0
-->

<additional xmlns:xsi="http://www.w3.org/2001/XMLSchema-instance" xsi:noNamespaceSchemaLocation="http://sumo.dlr.de/xsd/additional_file.xsd">
    <!-- Shapes -->
    <poly id="0"  type="building" color="red" fill="1" layer="0.00" shape="13.500000,13.500000 236.500000,13.500000 236.500000,419.500000 13.500000,419.500000 13.500000,13.500000"/>
    <poly id="1"  type="building" color="red" fill="1" layer="0.00" shape="263.500000,13.500000 486.500000,13.500000 486.500000,419.500000 263.500000,419.500000 263.500000,13.500000"/>
    <poly id="2"  type="building" color="red" fill="1" layer="0.00" shape="513.500000,13.500000 736.500000,13.500000 736.500000,419.500000 513.500000,419.500000 513.500000,13.500000"/>

    <poly id="3"  type="building" color="red" fill="1" layer="0.00" shape="13.500000,446.500000 243.500000,446.500000 243.500000,852.500000 13.500000,852.500000 13.500000,446.500000"/>
    <poly id="4"  type="building" color="red" fill="1" layer="0.00" shape="263.500000,446.500000 486.500000,446.500000 486.500000,852.500000 263.500000,852.500000 263.500000,446.500000"/>
    <poly id="5"  type="building" color="red" fill="1" layer="0.00" shape="513.500000,446.500000 736.500000,446.500000 736.500000,852.500000 513.500000,852.500000 513.500000,446.500000"/>

    <poly id="6"  type="building" color="red" fill="1" layer="0.00" shape="13.500000,879.500000 243.500000,879.500000 243.500000,1285.500000 13.500000,1285.500000 13.500000,879.500000"/>
    <poly id="7"  type="building" color="red" fill="1" layer="0.00" shape="263.500000,879.500000 486.500000,879.500000 486.500000,1285.500000 263.500000,1285.500000 263.500000,879.500000"/>
    <poly id="8"  type="building" color="red" fill="1" layer="0.00" shape="513.500000,879.500000 736.500000,879.500000 736.500000,1285.500000 513.500000,1285.500000 513.500000,879.500000"/>
</additional>