<?xml version="1.0" encoding="UTF-8"?>

<!-- generated on 2023-12-11 12:37:05 by Eclipse SUMO netedit Version 1.19.0
<configuration xmlns:xsi="http://www.w3.org/2001/XMLSchema-instance" xsi:noNamespaceSchemaLocation="http://sumo.dlr.de/xsd/neteditConfiguration.xsd">

    <input>
        <sumo-net-file value="/home/yuki/omnetpp-5.4.1/OpenCV2X/scenarios/manhattan/myroad/6lane.net.xml"/>
    </input>

    <output>
        <tls-file value="/home/yuki/omnetpp-5.4.1/OpenCV2X/scenarios/manhattan/myroad/6lane.tll.xml"/>
    </output>

    <processing>
        <geometry.min-radius.fix.railways value="false"/>
        <geometry.max-grade.fix value="false"/>
        <offset.disable-normalization value="true"/>
        <lefthand value="0"/>
    </processing>

    <junctions>
        <no-turnarounds value="true"/>
        <junctions.corner-detail value="5"/>
        <junctions.limit-turn-speed value="-1.00"/>
        <rectangular-lane-cut value="0"/>
    </junctions>

    <pedestrian>
        <walkingareas value="0"/>
    </pedestrian>

</configuration>
-->

<additional xmlns:xsi="http://www.w3.org/2001/XMLSchema-instance" xsi:noNamespaceSchemaLocation="http://sumo.dlr.de/xsd/additional_file.xsd">
    <tlLogic id="C2" type="static" programID="0" offset="0">
        <phase duration="31" state="GGgGrrGGgGrr"/>
        <phase duration="4" state="yygyrryygyrr"/>
        <phase duration="6" state="rrGrrrrrGrrr"/>
        <phase duration="4" state="rryrrrrryrrr"/>
        <phase duration="31" state="GrrGGgGrrGGg"/>
        <phase duration="4" state="yrryygyrryyg"/>
        <phase duration="6" state="rrrrrGrrrrrG"/>
        <phase duration="4" state="rrrrryrrrrry"/>
    </tlLogic>
</additional>
