<?xml version="1.0" encoding="UTF-8"?>

<!-- generated on 2023-10-27 14:38:10 by Eclipse SUMO netedit Version 1.18.0
-->

<additional xmlns:xsi="http://www.w3.org/2001/XMLSchema-instance" xsi:noNamespaceSchemaLocation="http://sumo.dlr.de/xsd/additional_file.xsd">
    <!-- Shapes -->
    <poly id="0"  type="building" color="red" fill="1" layer="0.00" shape="10.000000,890.000000 90.000000,890.000000  90.000000,810.000000 10.000000,810.000000 10.000000,890.000000"/>
    <poly id="1"  type="building" color="red" fill="1" layer="0.00" shape="110.000000,890.000000 190.000000,890.000000 190.000000,810.000000 110.000000,810.000000 110.000000,890.000000"/>
    <poly id="2"  type="building" color="red" fill="1" layer="0.00" shape="210.000000,890.000000 290.000000,890.000000 290.000000,810.000000 210.000000,810.000000 210.000000,890.000000"/>
    <poly id="3"  type="building" color="red" fill="1" layer="0.00" shape="310.000000,890.000000 390.000000,890.000000 390.000000,810.000000 310.000000,810.000000 310.000000,890.000000"/>
    <poly id="4"  type="building" color="red" fill="1" layer="0.00" shape="410.000000,890.000000 490.000000,890.000000 490.000000,810.000000 410.000000,810.000000 410.000000,890.000000"/>
    <poly id="5"  type="building" color="red" fill="1" layer="0.00" shape="510.000000,890.000000 590.000000,890.000000 590.000000,810.000000 510.000000,810.000000 510.000000,890.000000"/>
    <poly id="6"  type="building" color="red" fill="1" layer="0.00" shape="610.000000,890.000000 690.000000,890.000000 690.000000,810.000000 610.000000,810.000000 610.000000,890.000000"/>
    <poly id="7"  type="building" color="red" fill="1" layer="0.00" shape="710.000000,890.000000 790.000000,890.000000 790.000000,810.000000 710.000000,810.000000 710.000000,890.000000"/>
    <poly id="8"  type="building" color="red" fill="1" layer="0.00" shape="810.000000,890.000000 890.000000,890.000000 890.000000,810.000000 810.000000,810.000000 810.000000,890.000000"/>

    <poly id="10" type="building" color="red" fill="1" layer="0.00" shape="10.000000,790.000000 90.000000,790.000000 90.000000,710.000000 10.000000,710.000000 10.000000,790.000000"/>
    <poly id="11" type="building" color="red" fill="1" layer="0.00" shape="110.000000,790.000000 190.000000,790.000000 190.000000,710.000000 110.000000,710.000000 110.000000,790.000000"/>
    <poly id="12" type="building" color="red" fill="1" layer="0.00" shape="210.000000,790.000000 290.000000,790.000000 290.000000,710.000000 210.000000,710.000000 210.000000,790.000000"/>
    <poly id="13" type="building" color="red" fill="1" layer="0.00" shape="310.000000,790.000000 390.000000,790.000000 390.000000,710.000000 310.000000,710.000000 310.000000,790.000000"/>
    <poly id="14" type="building" color="red" fill="1" layer="0.00" shape="410.000000,790.000000 490.000000,790.000000 490.000000,710.000000 410.000000,710.000000 410.000000,790.000000"/>
    <poly id="15" type="building" color="red" fill="1" layer="0.00" shape="510.000000,790.000000 590.000000,790.000000 590.000000,710.000000 510.000000,710.000000 510.000000,790.000000"/>
    <poly id="16" type="building" color="red" fill="1" layer="0.00" shape="610.000000,790.000000 690.000000,790.000000 690.000000,710.000000 610.000000,710.000000 610.000000,790.000000"/>
    <poly id="17" type="building" color="red" fill="1" layer="0.00" shape="710.000000,790.000000 790.000000,790.000000 790.000000,710.000000 710.000000,710.000000 710.000000,790.000000"/>
    <poly id="18" type="building" color="red" fill="1" layer="0.00" shape="810.000000,790.000000 890.000000,790.000000 890.000000,710.000000 810.000000,710.000000 810.000000,790.000000"/>

    <poly id="20" type="building" color="red" fill="1" layer="0.00" shape="10.000000,690.000000 90.000000,690.000000 90.000000,610.000000 10.000000,610.000000 10.000000,690.000000"/>
    <poly id="21" type="building" color="red" fill="1" layer="0.00" shape="110.000000,690.000000 190.000000,690.000000 190.000000,610.000000 110.000000,610.000000 110.000000,690.000000"/>
    <poly id="22" type="building" color="red" fill="1" layer="0.00" shape="210.000000,690.000000 290.000000,690.000000 290.000000,610.000000 210.000000,610.000000 210.000000,690.000000"/>
    <poly id="23" type="building" color="red" fill="1" layer="0.00" shape="310.000000,690.000000 390.000000,690.000000 390.000000,610.000000 310.000000,610.000000 310.000000,690.000000"/>
    <poly id="24" type="building" color="red" fill="1" layer="0.00" shape="410.000000,690.000000 490.000000,690.000000 490.000000,610.000000 410.000000,610.000000 410.000000,690.000000"/>
    <poly id="25" type="building" color="red" fill="1" layer="0.00" shape="510.000000,690.000000 590.000000,690.000000 590.000000,610.000000 510.000000,610.000000 510.000000,690.000000"/>
    <poly id="26" type="building" color="red" fill="1" layer="0.00" shape="610.000000,690.000000 690.000000,690.000000 690.000000,610.000000 610.000000,610.000000 610.000000,690.000000"/>
    <poly id="27" type="building" color="red" fill="1" layer="0.00" shape="710.000000,690.000000 790.000000,690.000000 790.000000,610.000000 710.000000,610.000000 710.000000,690.000000"/>
    <poly id="28" type="building" color="red" fill="1" layer="0.00" shape="810.000000,690.000000 890.000000,690.000000 890.000000,610.000000 810.000000,610.000000 810.000000,690.000000"/>

    <poly id="30" type="building" color="red" fill="1" layer="0.00" shape="10.000000,590.000000 90.000000,590.000000 90.000000,510.000000 10.000000,510.000000 10.000000,590.000000"/>
    <poly id="31" type="building" color="red" fill="1" layer="0.00" shape="110.000000,590.000000 190.000000,590.000000 190.000000,510.000000 110.000000,510.000000 110.000000,590.000000"/>
    <poly id="32" type="building" color="red" fill="1" layer="0.00" shape="210.000000,590.000000 290.000000,590.000000 290.000000,510.000000 210.000000,510.000000 210.000000,590.000000"/>
    <poly id="33" type="building" color="red" fill="1" layer="0.00" shape="310.000000,590.000000 390.000000,590.000000 390.000000,510.000000 310.000000,510.000000 310.000000,590.000000"/>
    <poly id="34" type="building" color="red" fill="1" layer="0.00" shape="410.000000,590.000000 490.000000,590.000000 490.000000,510.000000 410.000000,510.000000 410.000000,590.000000"/>
    <poly id="35" type="building" color="red" fill="1" layer="0.00" shape="510.000000,590.000000 590.000000,590.000000 590.000000,510.000000 510.000000,510.000000 510.000000,590.000000"/>
    <poly id="36" type="building" color="red" fill="1" layer="0.00" shape="610.000000,590.000000 690.000000,590.000000 690.000000,510.000000 610.000000,510.000000 610.000000,590.000000"/>
    <poly id="37" type="building" color="red" fill="1" layer="0.00" shape="710.000000,590.000000 790.000000,590.000000 790.000000,510.000000 710.000000,510.000000 710.000000,590.000000"/>
    <poly id="38" type="building" color="red" fill="1" layer="0.00" shape="810.000000,590.000000 890.000000,590.000000 890.000000,510.000000 810.000000,510.000000 810.000000,590.000000"/>

    <poly id="40" type="building" color="red" fill="1" layer="0.00" shape="10.000000,490.000000 90.000000,490.000000 90.000000,410.000000 10.000000,410.000000 10.000000,490.000000"/>
    <poly id="41" type="building" color="red" fill="1" layer="0.00" shape="110.000000,490.000000 190.000000,490.000000 190.000000,410.000000 110.000000,410.000000 110.000000,490.000000"/>
    <poly id="42" type="building" color="red" fill="1" layer="0.00" shape="210.000000,490.000000 290.000000,490.000000 290.000000,410.000000 210.000000,410.000000 210.000000,490.000000"/>
    <poly id="43" type="building" color="red" fill="1" layer="0.00" shape="310.000000,490.000000 390.000000,490.000000 390.000000,410.000000 310.000000,410.000000 310.000000,490.000000"/>
    <poly id="44" type="building" color="red" fill="1" layer="0.00" shape="410.000000,490.000000 490.000000,490.000000 490.000000,410.000000 410.000000,410.000000 410.000000,490.000000"/>
    <poly id="45" type="building" color="red" fill="1" layer="0.00" shape="510.000000,490.000000 590.000000,490.000000 590.000000,410.000000 510.000000,410.000000 510.000000,490.000000"/>
    <poly id="46" type="building" color="red" fill="1" layer="0.00" shape="610.000000,490.000000 690.000000,490.000000 690.000000,410.000000 610.000000,410.000000 610.000000,490.000000"/>
    <poly id="47" type="building" color="red" fill="1" layer="0.00" shape="710.000000,490.000000 790.000000,490.000000 790.000000,410.000000 710.000000,410.000000 710.000000,490.000000"/>
    <poly id="48" type="building" color="red" fill="1" layer="0.00" shape="810.000000,490.000000 890.000000,490.000000 890.000000,410.000000 810.000000,410.000000 810.000000,490.000000"/>

    <poly id="50" type="building" color="red" fill="1" layer="0.00" shape="10.000000,390.000000 90.000000,390.000000 90.000000,310.000000 10.000000,310.000000 10.000000,390.000000"/>
    <poly id="51" type="building" color="red" fill="1" layer="0.00" shape="110.000000,390.000000 190.000000,390.000000 190.000000,310.000000 110.000000,310.000000 110.000000,390.000000"/>
    <poly id="52" type="building" color="red" fill="1" layer="0.00" shape="210.000000,390.000000 290.000000,390.000000 290.000000,310.000000 210.000000,310.000000 210.000000,390.000000"/>
    <poly id="53" type="building" color="red" fill="1" layer="0.00" shape="310.000000,390.000000 390.000000,390.000000 390.000000,310.000000 310.000000,310.000000 310.000000,390.000000"/>
    <poly id="54" type="building" color="red" fill="1" layer="0.00" shape="410.000000,390.000000 490.000000,390.000000 490.000000,310.000000 410.000000,310.000000 410.000000,390.000000"/>
    <poly id="55" type="building" color="red" fill="1" layer="0.00" shape="510.000000,390.000000 590.000000,390.000000 590.000000,310.000000 510.000000,310.000000 510.000000,390.000000"/>
    <poly id="56" type="building" color="red" fill="1" layer="0.00" shape="610.000000,390.000000 690.000000,390.000000 690.000000,310.000000 610.000000,310.000000 610.000000,390.000000"/>
    <poly id="57" type="building" color="red" fill="1" layer="0.00" shape="710.000000,390.000000 790.000000,390.000000 790.000000,310.000000 710.000000,310.000000 710.000000,390.000000"/>
    <poly id="58" type="building" color="red" fill="1" layer="0.00" shape="810.000000,390.000000 890.000000,390.000000 890.000000,310.000000 810.000000,310.000000 810.000000,390.000000"/>

    <poly id="60" type="building" color="red" fill="1" layer="0.00" shape="10.000000,290.000000 90.000000,290.000000 90.000000,210.000000 10.000000,210.000000 10.000000,290.000000"/>
    <poly id="61" type="building" color="red" fill="1" layer="0.00" shape="110.000000,290.000000 190.000000,290.000000 190.000000,210.000000 110.000000,210.000000 110.000000,290.000000"/>
    <poly id="62" type="building" color="red" fill="1" layer="0.00" shape="210.000000,290.000000 290.000000,290.000000 290.000000,210.000000 210.000000,210.000000 210.000000,290.000000"/>
    <poly id="63" type="building" color="red" fill="1" layer="0.00" shape="310.000000,290.000000 390.000000,290.000000 390.000000,210.000000 310.000000,210.000000 310.000000,290.000000"/>
    <poly id="64" type="building" color="red" fill="1" layer="0.00" shape="410.000000,290.000000 490.000000,290.000000 490.000000,210.000000 410.000000,210.000000 410.000000,290.000000"/>
    <poly id="65" type="building" color="red" fill="1" layer="0.00" shape="510.000000,290.000000 590.000000,290.000000 590.000000,210.000000 510.000000,210.000000 510.000000,290.000000"/>
    <poly id="66" type="building" color="red" fill="1" layer="0.00" shape="610.000000,290.000000 690.000000,290.000000 690.000000,210.000000 610.000000,210.000000 610.000000,290.000000"/>
    <poly id="67" type="building" color="red" fill="1" layer="0.00" shape="710.000000,290.000000 790.000000,290.000000 790.000000,210.000000 710.000000,210.000000 710.000000,290.000000"/>
    <poly id="68" type="building" color="red" fill="1" layer="0.00" shape="810.000000,290.000000 890.000000,290.000000 890.000000,210.000000 810.000000,210.000000 810.000000,290.000000"/>

    <poly id="70" type="building" color="red" fill="1" layer="0.00" shape="10.000000,190.000000 90.000000,190.000000 90.000000,110.000000 10.000000,110.000000 10.000000,190.000000"/>
    <poly id="71" type="building" color="red" fill="1" layer="0.00" shape="110.000000,190.000000 190.000000,190.000000 190.000000,110.000000 110.000000,110.000000 110.000000,190.000000"/>
    <poly id="72" type="building" color="red" fill="1" layer="0.00" shape="210.000000,190.000000 290.000000,190.000000 290.000000,110.000000 210.000000,110.000000 210.000000,190.000000"/>
    <poly id="73" type="building" color="red" fill="1" layer="0.00" shape="310.000000,190.000000 390.000000,190.000000 390.000000,110.000000 310.000000,110.000000 310.000000,190.000000"/>
    <poly id="74" type="building" color="red" fill="1" layer="0.00" shape="410.000000,190.000000 490.000000,190.000000 490.000000,110.000000 410.000000,110.000000 410.000000,190.000000"/>
    <poly id="75" type="building" color="red" fill="1" layer="0.00" shape="510.000000,190.000000 590.000000,190.000000 590.000000,110.000000 510.000000,110.000000 510.000000,190.000000"/>
    <poly id="76" type="building" color="red" fill="1" layer="0.00" shape="610.000000,190.000000 690.000000,190.000000 690.000000,110.000000 610.000000,110.000000 610.000000,190.000000"/>
    <poly id="77" type="building" color="red" fill="1" layer="0.00" shape="710.000000,190.000000 790.000000,190.000000 790.000000,110.000000 710.000000,110.000000 710.000000,190.000000"/>
    <poly id="78" type="building" color="red" fill="1" layer="0.00" shape="810.000000,190.000000 890.000000,190.000000 890.000000,110.000000 810.000000,110.000000 810.000000,190.000000"/>

    <poly id="80" type="building" color="red" fill="1" layer="0.00" shape="10.000000,90.000000 90.000000,90.000000 90.000000,10.000000 10.000000,10.000000 10.000000,90.000000"/>
    <poly id="81" type="building" color="red" fill="1" layer="0.00" shape="110.000000,90.000000 190.000000,90.000000 190.000000,10.000000 110.000000,10.000000 110.000000,90.000000"/>
    <poly id="82" type="building" color="red" fill="1" layer="0.00" shape="210.000000,90.000000 290.000000,90.000000 290.000000,10.000000 210.000000,10.000000 210.000000,90.000000"/>
    <poly id="83" type="building" color="red" fill="1" layer="0.00" shape="310.000000,90.000000 390.000000,90.000000 390.000000,10.000000 310.000000,10.000000 310.000000,90.000000"/>
    <poly id="84" type="building" color="red" fill="1" layer="0.00" shape="410.000000,90.000000 490.000000,90.000000 490.000000,10.000000 410.000000,10.000000 410.000000,90.000000"/>
    <poly id="85" type="building" color="red" fill="1" layer="0.00" shape="510.000000,90.000000 590.000000,90.000000 590.000000,10.000000 510.000000,10.000000 510.000000,90.000000"/>
    <poly id="86" type="building" color="red" fill="1" layer="0.00" shape="610.000000,90.000000 690.000000,90.000000 690.000000,10.000000 610.000000,10.000000 610.000000,90.000000"/>
    <poly id="87" type="building" color="red" fill="1" layer="0.00" shape="710.000000,90.000000 790.000000,90.000000 790.000000,10.000000 710.000000,10.000000 710.000000,90.000000"/>
    <poly id="88" type="building" color="red" fill="1" layer="0.00" shape="810.000000,90.000000 890.000000,90.000000 890.000000,10.000000 810.000000,10.000000 810.000000,90.000000"/>

</additional>
