<routes xmlns:xsi="http://www.w3.org/2001/XMLSchema-instance" xsi:noNamespaceSchemaLocation="http://sumo.dlr.de/xsd/routes_file.xsd">
    <!-- <vehicle id="0.0" depart="0.00" departPos="10" departSpeed="max">
        <route edges = "E0 -E3"/>
    </vehicle> -->
    <!-- <vehicle id="0.0" depart="0.00" departSpeed="max">
        <route edges = "E0 -E3"/>
    </vehicle>
    <vehicle id="1.0" depart="0.00" departSpeed="max">
        <route edges = "E1 -E2"/>
    </vehicle> -->
    <vType id="vtype0" accel="3.81" decel="8.35" length="5.0" width="1.8" maxSpeed="16.67" sigma="0.0" speedDev="0.2"/>

    <!-- 普及率20% -->
    <!-- 最初にランダムに配置 -->
    <!-- <flow id="0" color="1,1,0"  begin="0" end="1" period="0.20833" type="vtype0"  from="E0" to="-E1" departLane="random" departPos="random" departSpeed="max"/>
    <flow id="1" color="1,1,0"  begin="0" end="1" period="0.20833" type="vtype0"  from="E0" to="-E2" departLane="random" departPos="random" departSpeed="max"/>
    <flow id="2" color="1,1,0"  begin="0" end="1" period="0.20833" type="vtype0"  from="E0" to="-E3" departLane="random" departPos="random" departSpeed="max"/>
    <flow id="3" color="1,1,0"  begin="0" end="1" period="0.20833" type="vtype0"  from="E1" to="-E0" departLane="random" departPos="random" departSpeed="max"/>
    <flow id="4" color="1,1,0"  begin="0" end="1" period="0.20833" type="vtype0"  from="E1" to="-E2" departLane="random" departPos="random" departSpeed="max"/>
    <flow id="5" color="1,1,0"  begin="0" end="1" period="0.20833" type="vtype0"  from="E1" to="-E3" departLane="random" departPos="random" departSpeed="max"/>
    <flow id="6" color="1,1,0"  begin="0" end="1" period="0.20833" type="vtype0"  from="E2" to="-E0" departLane="random" departPos="random" departSpeed="max"/>
    <flow id="7" color="1,1,0"  begin="0" end="1" period="0.20833" type="vtype0"  from="E2" to="-E1" departLane="random" departPos="random" departSpeed="max"/>
    <flow id="8" color="1,1,0"  begin="0" end="1" period="0.20833" type="vtype0"  from="E2" to="-E3" departLane="random" departPos="random" departSpeed="max"/>
    <flow id="9" color="1,1,0"  begin="0" end="1" period="0.20833" type="vtype0"  from="E3" to="-E0" departLane="random" departPos="random" departSpeed="max"/>
    <flow id="10" color="1,1,0"  begin="0" end="1" period="0.20833" type="vtype0"  from="E3" to="-E1" departLane="random" departPos="random" departSpeed="max"/>
    <flow id="11" color="1,1,0"  begin="0" end="1" period="0.20833" type="vtype0"  from="E3" to="-E2" departLane="random" departPos="random" departSpeed="max"/>
    <flow id="12" color="1,1,0"  begin="0" end="1" period="0.06944" type="vtype0"  from="-E0"  departLane="random" departPos="random" departSpeed="max"/>
    <flow id="13" color="1,1,0"  begin="0" end="1" period="0.06944" type="vtype0"  from="-E1" departLane="random" departPos="random" departSpeed="max"/>
    <flow id="14" color="1,1,0"  begin="0" end="1" period="0.06944" type="vtype0"  from="-E2" departLane="random" departPos="random" departSpeed="max"/>
    <flow id="15" color="1,1,0"  begin="0" end="1" period="0.06944" type="vtype0"  from="-E3" departLane="random" departPos="random" departSpeed="max"/> -->
    <!-- シミュレーション中に端から追加 -->
    <!-- <flow id="16" color="1,1,0"  begin="0" end="50" probability="0.12" type="vtype0"  from="E0" to="-E1" departLane="random" departPos="random" departSpeed="max"/>
    <flow id="17" color="1,1,0"  begin="0" end="50" probability="0.12" type="vtype0"  from="E0" to="-E2" departLane="random" departPos="random" departSpeed="max"/>
    <flow id="18" color="1,1,0"  begin="0" end="50" probability="0.12" type="vtype0"  from="E0" to="-E3" departLane="random" departPos="random" departSpeed="max"/>
    <flow id="19" color="1,1,0"  begin="0" end="50" probability="0.12" type="vtype0"  from="E1" to="-E0" departLane="random" departPos="random" departSpeed="max"/>
    <flow id="20" color="1,1,0"  begin="0" end="50" probability="0.12" type="vtype0"  from="E1" to="-E2" departLane="random" departPos="random" departSpeed="max"/>
    <flow id="21" color="1,1,0"  begin="0" end="50" probability="0.12" type="vtype0"  from="E1" to="-E3" departLane="random" departPos="random" departSpeed="max"/>
    <flow id="22" color="1,1,0"  begin="0" end="50" probability="0.12" type="vtype0"  from="E2" to="-E0" departLane="random" departPos="random" departSpeed="max"/>
    <flow id="23" color="1,1,0"  begin="0" end="50" probability="0.12" type="vtype0"  from="E2" to="-E1" departLane="random" departPos="random" departSpeed="max"/>
    <flow id="24" color="1,1,0"  begin="0" end="50" probability="0.12" type="vtype0"  from="E2" to="-E3" departLane="random" departPos="random" departSpeed="max"/>
    <flow id="25" color="1,1,0"  begin="0" end="50" probability="0.12" type="vtype0"  from="E3" to="-E0" departLane="random" departPos="random" departSpeed="max"/>
    <flow id="26" color="1,1,0"  begin="0" end="50" probability="0.12" type="vtype0"  from="E3" to="-E1" departLane="random" departPos="random" departSpeed="max"/>
    <flow id="27" color="1,1,0"  begin="0" end="50" probability="0.12" type="vtype0"  from="E3" to="-E2" departLane="random" departPos="random" departSpeed="max"/> -->
    <!-- 手動運転者 -->
    <!-- 最初にランダムに配置 -->
    <!-- <flow id="100" color="0,0,1"  begin="0" end="1" period="0.05208" type="vtype0"  from="E0" to="-E1" departLane="random" departPos="random" departSpeed="max"/>
    <flow id="101" color="0,0,1"  begin="0" end="1" period="0.05208" type="vtype0"  from="E0" to="-E2" departLane="random" departPos="random" departSpeed="max"/>
    <flow id="102" color="0,0,1"  begin="0" end="1" period="0.05208" type="vtype0"  from="E0" to="-E3" departLane="random" departPos="random" departSpeed="max"/>
    <flow id="103" color="0,0,1"  begin="0" end="1" period="0.05208" type="vtype0"  from="E1" to="-E0" departLane="random" departPos="random" departSpeed="max"/>
    <flow id="104" color="0,0,1"  begin="0" end="1" period="0.05208" type="vtype0"  from="E1" to="-E2" departLane="random" departPos="random" departSpeed="max"/>
    <flow id="105" color="0,0,1"  begin="0" end="1" period="0.05208" type="vtype0"  from="E1" to="-E3" departLane="random" departPos="random" departSpeed="max"/>
    <flow id="106" color="0,0,1"  begin="0" end="1" period="0.05208" type="vtype0"  from="E2" to="-E0" departLane="random" departPos="random" departSpeed="max"/>
    <flow id="107" color="0,0,1"  begin="0" end="1" period="0.05208" type="vtype0"  from="E2" to="-E1" departLane="random" departPos="random" departSpeed="max"/>
    <flow id="108" color="0,0,1"  begin="0" end="1" period="0.05208" type="vtype0"  from="E2" to="-E3" departLane="random" departPos="random" departSpeed="max"/>
    <flow id="109" color="0,0,1"  begin="0" end="1" period="0.05208" type="vtype0"  from="E3" to="-E0" departLane="random" departPos="random" departSpeed="max"/>
    <flow id="110" color="0,0,1"  begin="0" end="1" period="0.05208" type="vtype0"  from="E3" to="-E1" departLane="random" departPos="random" departSpeed="max"/>
    <flow id="111" color="0,0,1"  begin="0" end="1" period="0.05208" type="vtype0"  from="E3" to="-E2" departLane="random" departPos="random" departSpeed="max"/>
    <flow id="112" color="0,0,1"  begin="0" end="1" period="0.01736" type="vtype0"  from="-E0"  departLane="random" departPos="random" departSpeed="max"/>
    <flow id="113" color="0,0,1"  begin="0" end="1" period="0.01736" type="vtype0"  from="-E1" departLane="random" departPos="random" departSpeed="max"/>
    <flow id="114" color="0,0,1"  begin="0" end="1" period="0.01736" type="vtype0"  from="-E2" departLane="random" departPos="random" departSpeed="max"/>
    <flow id="115" color="0,0,1"  begin="0" end="1" period="0.01736" type="vtype0"  from="-E3" departLane="random" departPos="random" departSpeed="max"/> -->
    <!-- シミュレーション中に端から追加 -->
    <!-- <flow id="116" color="0,0,1"  begin="0" end="50" probability="0.48" type="vtype0"  from="E0" to="-E1" departLane="random" departPos="random" departSpeed="max"/>
    <flow id="117" color="0,0,1"  begin="0" end="50" probability="0.48" type="vtype0"  from="E0" to="-E2" departLane="random" departPos="random" departSpeed="max"/>
    <flow id="118" color="0,0,1"  begin="0" end="50" probability="0.48" type="vtype0"  from="E0" to="-E3" departLane="random" departPos="random" departSpeed="max"/>
    <flow id="119" color="0,0,1"  begin="0" end="50" probability="0.48" type="vtype0"  from="E1" to="-E0" departLane="random" departPos="random" departSpeed="max"/>
    <flow id="120" color="0,0,1"  begin="0" end="50" probability="0.48" type="vtype0"  from="E1" to="-E2" departLane="random" departPos="random" departSpeed="max"/>
    <flow id="121" color="0,0,1"  begin="0" end="50" probability="0.48" type="vtype0"  from="E1" to="-E3" departLane="random" departPos="random" departSpeed="max"/>
    <flow id="122" color="0,0,1"  begin="0" end="50" probability="0.48" type="vtype0"  from="E2" to="-E0" departLane="random" departPos="random" departSpeed="max"/>
    <flow id="123" color="0,0,1"  begin="0" end="50" probability="0.48" type="vtype0"  from="E2" to="-E1" departLane="random" departPos="random" departSpeed="max"/>
    <flow id="124" color="0,0,1"  begin="0" end="50" probability="0.48" type="vtype0"  from="E2" to="-E3" departLane="random" departPos="random" departSpeed="max"/>
    <flow id="125" color="0,0,1"  begin="0" end="50" probability="0.48" type="vtype0"  from="E3" to="-E0" departLane="random" departPos="random" departSpeed="max"/>
    <flow id="126" color="0,0,1"  begin="0" end="50" probability="0.48" type="vtype0"  from="E3" to="-E1" departLane="random" departPos="random" departSpeed="max"/>
    <flow id="127" color="0,0,1"  begin="0" end="50" probability="0.48" type="vtype0"  from="E3" to="-E2" departLane="random" departPos="random" departSpeed="max"/> -->

    <!-- 普及率40% -->
    <!-- 最初にランダムに配置 -->
    <!-- <flow id="0" color="1,1,0"  begin="0" end="1" period="0.10417" type="vtype0"  from="E0" to="-E1" departLane="random" departPos="random" departSpeed="max"/>
    <flow id="1" color="1,1,0"  begin="0" end="1" period="0.10417" type="vtype0"  from="E0" to="-E2" departLane="random" departPos="random" departSpeed="max"/>
    <flow id="2" color="1,1,0"  begin="0" end="1" period="0.10417" type="vtype0"  from="E0" to="-E3" departLane="random" departPos="random" departSpeed="max"/>
    <flow id="3" color="1,1,0"  begin="0" end="1" period="0.10417" type="vtype0"  from="E1" to="-E0" departLane="random" departPos="random" departSpeed="max"/>
    <flow id="4" color="1,1,0"  begin="0" end="1" period="0.10417" type="vtype0"  from="E1" to="-E2" departLane="random" departPos="random" departSpeed="max"/>
    <flow id="5" color="1,1,0"  begin="0" end="1" period="0.10417" type="vtype0"  from="E1" to="-E3" departLane="random" departPos="random" departSpeed="max"/>
    <flow id="6" color="1,1,0"  begin="0" end="1" period="0.10417" type="vtype0"  from="E2" to="-E0" departLane="random" departPos="random" departSpeed="max"/>
    <flow id="7" color="1,1,0"  begin="0" end="1" period="0.10417" type="vtype0"  from="E2" to="-E1" departLane="random" departPos="random" departSpeed="max"/>
    <flow id="8" color="1,1,0"  begin="0" end="1" period="0.10417" type="vtype0"  from="E2" to="-E3" departLane="random" departPos="random" departSpeed="max"/>
    <flow id="9" color="1,1,0"  begin="0" end="1" period="0.10417" type="vtype0"  from="E3" to="-E0" departLane="random" departPos="random" departSpeed="max"/>
    <flow id="10" color="1,1,0"  begin="0" end="1" period="0.10417" type="vtype0"  from="E3" to="-E1" departLane="random" departPos="random" departSpeed="max"/>
    <flow id="11" color="1,1,0"  begin="0" end="1" period="0.10417" type="vtype0"  from="E3" to="-E2" departLane="random" departPos="random" departSpeed="max"/>
    <flow id="12" color="1,1,0"  begin="0" end="1" period="0.03472" type="vtype0"  from="-E0"  departLane="random" departPos="random" departSpeed="max"/>
    <flow id="13" color="1,1,0"  begin="0" end="1" period="0.03472" type="vtype0"  from="-E1" departLane="random" departPos="random" departSpeed="max"/>
    <flow id="14" color="1,1,0"  begin="0" end="1" period="0.03472" type="vtype0"  from="-E2" departLane="random" departPos="random" departSpeed="max"/>
    <flow id="15" color="1,1,0"  begin="0" end="1" period="0.03472" type="vtype0"  from="-E3" departLane="random" departPos="random" departSpeed="max"/> -->
    <!-- シミュレーション中に端から追加 -->
    <!-- <flow id="16" color="1,1,0"  begin="0" end="50" probability="0.24" type="vtype0"  from="E0" to="-E1" departLane="random" departPos="random" departSpeed="max"/>
    <flow id="17" color="1,1,0"  begin="0" end="50" probability="0.24" type="vtype0"  from="E0" to="-E2" departLane="random" departPos="random" departSpeed="max"/>
    <flow id="18" color="1,1,0"  begin="0" end="50" probability="0.24" type="vtype0"  from="E0" to="-E3" departLane="random" departPos="random" departSpeed="max"/>
    <flow id="19" color="1,1,0"  begin="0" end="50" probability="0.24" type="vtype0"  from="E1" to="-E0" departLane="random" departPos="random" departSpeed="max"/>
    <flow id="20" color="1,1,0"  begin="0" end="50" probability="0.24" type="vtype0"  from="E1" to="-E2" departLane="random" departPos="random" departSpeed="max"/>
    <flow id="21" color="1,1,0"  begin="0" end="50" probability="0.24" type="vtype0"  from="E1" to="-E3" departLane="random" departPos="random" departSpeed="max"/>
    <flow id="22" color="1,1,0"  begin="0" end="50" probability="0.24" type="vtype0"  from="E2" to="-E0" departLane="random" departPos="random" departSpeed="max"/>
    <flow id="23" color="1,1,0"  begin="0" end="50" probability="0.24" type="vtype0"  from="E2" to="-E1" departLane="random" departPos="random" departSpeed="max"/>
    <flow id="24" color="1,1,0"  begin="0" end="50" probability="0.24" type="vtype0"  from="E2" to="-E3" departLane="random" departPos="random" departSpeed="max"/>
    <flow id="25" color="1,1,0"  begin="0" end="50" probability="0.24" type="vtype0"  from="E3" to="-E0" departLane="random" departPos="random" departSpeed="max"/>
    <flow id="26" color="1,1,0"  begin="0" end="50" probability="0.24" type="vtype0"  from="E3" to="-E1" departLane="random" departPos="random" departSpeed="max"/>
    <flow id="27" color="1,1,0"  begin="0" end="50" probability="0.24" type="vtype0"  from="E3" to="-E2" departLane="random" departPos="random" departSpeed="max"/> -->
    <!-- 手動運転者 -->
    <!-- 最初にランダムに配置 -->
    <!-- <flow id="100" color="0,0,1"  begin="0" end="1" period="0.06944" type="vtype0"  from="E0" to="-E1" departLane="random" departPos="random" departSpeed="max"/>
    <flow id="101" color="0,0,1"  begin="0" end="1" period="0.06944" type="vtype0"  from="E0" to="-E2" departLane="random" departPos="random" departSpeed="max"/>
    <flow id="102" color="0,0,1"  begin="0" end="1" period="0.06944" type="vtype0"  from="E0" to="-E3" departLane="random" departPos="random" departSpeed="max"/>
    <flow id="103" color="0,0,1"  begin="0" end="1" period="0.06944" type="vtype0"  from="E1" to="-E0" departLane="random" departPos="random" departSpeed="max"/>
    <flow id="104" color="0,0,1"  begin="0" end="1" period="0.06944" type="vtype0"  from="E1" to="-E2" departLane="random" departPos="random" departSpeed="max"/>
    <flow id="105" color="0,0,1"  begin="0" end="1" period="0.06944" type="vtype0"  from="E1" to="-E3" departLane="random" departPos="random" departSpeed="max"/>
    <flow id="106" color="0,0,1"  begin="0" end="1" period="0.06944" type="vtype0"  from="E2" to="-E0" departLane="random" departPos="random" departSpeed="max"/>
    <flow id="107" color="0,0,1"  begin="0" end="1" period="0.06944" type="vtype0"  from="E2" to="-E1" departLane="random" departPos="random" departSpeed="max"/>
    <flow id="108" color="0,0,1"  begin="0" end="1" period="0.06944" type="vtype0"  from="E2" to="-E3" departLane="random" departPos="random" departSpeed="max"/>
    <flow id="109" color="0,0,1"  begin="0" end="1" period="0.06944" type="vtype0"  from="E3" to="-E0" departLane="random" departPos="random" departSpeed="max"/>
    <flow id="110" color="0,0,1"  begin="0" end="1" period="0.06944" type="vtype0"  from="E3" to="-E1" departLane="random" departPos="random" departSpeed="max"/>
    <flow id="111" color="0,0,1"  begin="0" end="1" period="0.06944" type="vtype0"  from="E3" to="-E2" departLane="random" departPos="random" departSpeed="max"/>
    <flow id="112" color="0,0,1"  begin="0" end="1" period="0.02315" type="vtype0"  from="-E0"  departLane="random" departPos="random" departSpeed="max"/>
    <flow id="113" color="0,0,1"  begin="0" end="1" period="0.02315" type="vtype0"  from="-E1" departLane="random" departPos="random" departSpeed="max"/>
    <flow id="114" color="0,0,1"  begin="0" end="1" period="0.02315" type="vtype0"  from="-E2" departLane="random" departPos="random" departSpeed="max"/>
    <flow id="115" color="0,0,1"  begin="0" end="1" period="0.02315" type="vtype0"  from="-E3" departLane="random" departPos="random" departSpeed="max"/> -->
    <!-- シミュレーション中に端から追加 -->
    <!-- <flow id="116" color="0,0,1"  begin="0" end="50" probability="0.36" type="vtype0"  from="E0" to="-E1" departLane="random" departPos="random" departSpeed="max"/>
    <flow id="117" color="0,0,1"  begin="0" end="50" probability="0.36" type="vtype0"  from="E0" to="-E2" departLane="random" departPos="random" departSpeed="max"/>
    <flow id="118" color="0,0,1"  begin="0" end="50" probability="0.36" type="vtype0"  from="E0" to="-E3" departLane="random" departPos="random" departSpeed="max"/>
    <flow id="119" color="0,0,1"  begin="0" end="50" probability="0.36" type="vtype0"  from="E1" to="-E0" departLane="random" departPos="random" departSpeed="max"/>
    <flow id="120" color="0,0,1"  begin="0" end="50" probability="0.36" type="vtype0"  from="E1" to="-E2" departLane="random" departPos="random" departSpeed="max"/>
    <flow id="121" color="0,0,1"  begin="0" end="50" probability="0.36" type="vtype0"  from="E1" to="-E3" departLane="random" departPos="random" departSpeed="max"/>
    <flow id="122" color="0,0,1"  begin="0" end="50" probability="0.36" type="vtype0"  from="E2" to="-E0" departLane="random" departPos="random" departSpeed="max"/>
    <flow id="123" color="0,0,1"  begin="0" end="50" probability="0.36" type="vtype0"  from="E2" to="-E1" departLane="random" departPos="random" departSpeed="max"/>
    <flow id="124" color="0,0,1"  begin="0" end="50" probability="0.36" type="vtype0"  from="E2" to="-E3" departLane="random" departPos="random" departSpeed="max"/>
    <flow id="125" color="0,0,1"  begin="0" end="50" probability="0.36" type="vtype0"  from="E3" to="-E0" departLane="random" departPos="random" departSpeed="max"/>
    <flow id="126" color="0,0,1"  begin="0" end="50" probability="0.36" type="vtype0"  from="E3" to="-E1" departLane="random" departPos="random" departSpeed="max"/>
    <flow id="127" color="0,0,1"  begin="0" end="50" probability="0.36" type="vtype0"  from="E3" to="-E2" departLane="random" departPos="random" departSpeed="max"/> -->

    <!-- 普及率60% -->
    <!-- 最初にランダムに配置 -->
    <flow id="0" color="1,1,0"  begin="0" end="1" period="0.06944" type="vtype0"  from="E0" to="-E1" departLane="random" departPos="random" departSpeed="max"/>
    <flow id="1" color="1,1,0"  begin="0" end="1" period="0.06944" type="vtype0"  from="E0" to="-E2" departLane="random" departPos="random" departSpeed="max"/>
    <flow id="2" color="1,1,0"  begin="0" end="1" period="0.06944" type="vtype0"  from="E0" to="-E3" departLane="random" departPos="random" departSpeed="max"/>
    <flow id="3" color="1,1,0"  begin="0" end="1" period="0.06944" type="vtype0"  from="E1" to="-E0" departLane="random" departPos="random" departSpeed="max"/>
    <flow id="4" color="1,1,0"  begin="0" end="1" period="0.06944" type="vtype0"  from="E1" to="-E2" departLane="random" departPos="random" departSpeed="max"/>
    <flow id="5" color="1,1,0"  begin="0" end="1" period="0.06944" type="vtype0"  from="E1" to="-E3" departLane="random" departPos="random" departSpeed="max"/>
    <flow id="6" color="1,1,0"  begin="0" end="1" period="0.06944" type="vtype0"  from="E2" to="-E0" departLane="random" departPos="random" departSpeed="max"/>
    <flow id="7" color="1,1,0"  begin="0" end="1" period="0.06944" type="vtype0"  from="E2" to="-E1" departLane="random" departPos="random" departSpeed="max"/>
    <flow id="8" color="1,1,0"  begin="0" end="1" period="0.06944" type="vtype0"  from="E2" to="-E3" departLane="random" departPos="random" departSpeed="max"/>
    <flow id="9" color="1,1,0"  begin="0" end="1" period="0.06944" type="vtype0"  from="E3" to="-E0" departLane="random" departPos="random" departSpeed="max"/>
    <flow id="10" color="1,1,0"  begin="0" end="1" period="0.06944" type="vtype0"  from="E3" to="-E1" departLane="random" departPos="random" departSpeed="max"/>
    <flow id="11" color="1,1,0"  begin="0" end="1" period="0.06944" type="vtype0"  from="E3" to="-E2" departLane="random" departPos="random" departSpeed="max"/>
    <flow id="12" color="1,1,0"  begin="0" end="1" period="0.02315" type="vtype0"  from="-E0"  departLane="random" departPos="random" departSpeed="max"/>
    <flow id="13" color="1,1,0"  begin="0" end="1" period="0.02315" type="vtype0"  from="-E1" departLane="random" departPos="random" departSpeed="max"/>
    <flow id="14" color="1,1,0"  begin="0" end="1" period="0.02315" type="vtype0"  from="-E2" departLane="random" departPos="random" departSpeed="max"/>
    <flow id="15" color="1,1,0"  begin="0" end="1" period="0.02315" type="vtype0"  from="-E3" departLane="random" departPos="random" departSpeed="max"/>
    <!-- シミュレーション中に端から追加 -->
    <flow id="16" color="1,1,0"  begin="0" end="50" probability="0.36" type="vtype0"  from="E0" to="-E1" departLane="random" departPos="random" departSpeed="max"/>
    <flow id="17" color="1,1,0"  begin="0" end="50" probability="0.36" type="vtype0"  from="E0" to="-E2" departLane="random" departPos="random" departSpeed="max"/>
    <flow id="18" color="1,1,0"  begin="0" end="50" probability="0.36" type="vtype0"  from="E0" to="-E3" departLane="random" departPos="random" departSpeed="max"/>
    <flow id="19" color="1,1,0"  begin="0" end="50" probability="0.36" type="vtype0"  from="E1" to="-E0" departLane="random" departPos="random" departSpeed="max"/>
    <flow id="20" color="1,1,0"  begin="0" end="50" probability="0.36" type="vtype0"  from="E1" to="-E2" departLane="random" departPos="random" departSpeed="max"/>
    <flow id="21" color="1,1,0"  begin="0" end="50" probability="0.36" type="vtype0"  from="E1" to="-E3" departLane="random" departPos="random" departSpeed="max"/>
    <flow id="22" color="1,1,0"  begin="0" end="50" probability="0.36" type="vtype0"  from="E2" to="-E0" departLane="random" departPos="random" departSpeed="max"/>
    <flow id="23" color="1,1,0"  begin="0" end="50" probability="0.36" type="vtype0"  from="E2" to="-E1" departLane="random" departPos="random" departSpeed="max"/>
    <flow id="24" color="1,1,0"  begin="0" end="50" probability="0.36" type="vtype0"  from="E2" to="-E3" departLane="random" departPos="random" departSpeed="max"/>
    <flow id="25" color="1,1,0"  begin="0" end="50" probability="0.36" type="vtype0"  from="E3" to="-E0" departLane="random" departPos="random" departSpeed="max"/>
    <flow id="26" color="1,1,0"  begin="0" end="50" probability="0.36" type="vtype0"  from="E3" to="-E1" departLane="random" departPos="random" departSpeed="max"/>
    <flow id="27" color="1,1,0"  begin="0" end="50" probability="0.36" type="vtype0"  from="E3" to="-E2" departLane="random" departPos="random" departSpeed="max"/>
    <!-- 手動運転者 -->
    <!-- 最初にランダムに配置 -->
    <flow id="100" color="0,0,1"  begin="0" end="1" period="0.10417" type="vtype0"  from="E0" to="-E1" departLane="random" departPos="random" departSpeed="max"/>
    <flow id="101" color="0,0,1"  begin="0" end="1" period="0.10417" type="vtype0"  from="E0" to="-E2" departLane="random" departPos="random" departSpeed="max"/>
    <flow id="102" color="0,0,1"  begin="0" end="1" period="0.10417" type="vtype0"  from="E0" to="-E3" departLane="random" departPos="random" departSpeed="max"/>
    <flow id="103" color="0,0,1"  begin="0" end="1" period="0.10417" type="vtype0"  from="E1" to="-E0" departLane="random" departPos="random" departSpeed="max"/>
    <flow id="104" color="0,0,1"  begin="0" end="1" period="0.10417" type="vtype0"  from="E1" to="-E2" departLane="random" departPos="random" departSpeed="max"/>
    <flow id="105" color="0,0,1"  begin="0" end="1" period="0.10417" type="vtype0"  from="E1" to="-E3" departLane="random" departPos="random" departSpeed="max"/>
    <flow id="106" color="0,0,1"  begin="0" end="1" period="0.10417" type="vtype0"  from="E2" to="-E0" departLane="random" departPos="random" departSpeed="max"/>
    <flow id="107" color="0,0,1"  begin="0" end="1" period="0.10417" type="vtype0"  from="E2" to="-E1" departLane="random" departPos="random" departSpeed="max"/>
    <flow id="108" color="0,0,1"  begin="0" end="1" period="0.10417" type="vtype0"  from="E2" to="-E3" departLane="random" departPos="random" departSpeed="max"/>
    <flow id="109" color="0,0,1"  begin="0" end="1" period="0.10417" type="vtype0"  from="E3" to="-E0" departLane="random" departPos="random" departSpeed="max"/>
    <flow id="110" color="0,0,1"  begin="0" end="1" period="0.10417" type="vtype0"  from="E3" to="-E1" departLane="random" departPos="random" departSpeed="max"/>
    <flow id="111" color="0,0,1"  begin="0" end="1" period="0.10417" type="vtype0"  from="E3" to="-E2" departLane="random" departPos="random" departSpeed="max"/>
    <flow id="112" color="0,0,1"  begin="0" end="1" period="0.03472" type="vtype0"  from="-E0"  departLane="random" departPos="random" departSpeed="max"/>
    <flow id="113" color="0,0,1"  begin="0" end="1" period="0.03472" type="vtype0"  from="-E1" departLane="random" departPos="random" departSpeed="max"/>
    <flow id="114" color="0,0,1"  begin="0" end="1" period="0.03472" type="vtype0"  from="-E2" departLane="random" departPos="random" departSpeed="max"/>
    <flow id="115" color="0,0,1"  begin="0" end="1" period="0.03472" type="vtype0"  from="-E3" departLane="random" departPos="random" departSpeed="max"/>
    <!-- シミュレーション中に端から追加 -->
    <flow id="116" color="0,0,1"  begin="0" end="50" probability="0.24" type="vtype0"  from="E0" to="-E1" departLane="random" departPos="random" departSpeed="max"/>
    <flow id="117" color="0,0,1"  begin="0" end="50" probability="0.24" type="vtype0"  from="E0" to="-E2" departLane="random" departPos="random" departSpeed="max"/>
    <flow id="118" color="0,0,1"  begin="0" end="50" probability="0.24" type="vtype0"  from="E0" to="-E3" departLane="random" departPos="random" departSpeed="max"/>
    <flow id="119" color="0,0,1"  begin="0" end="50" probability="0.24" type="vtype0"  from="E1" to="-E0" departLane="random" departPos="random" departSpeed="max"/>
    <flow id="120" color="0,0,1"  begin="0" end="50" probability="0.24" type="vtype0"  from="E1" to="-E2" departLane="random" departPos="random" departSpeed="max"/>
    <flow id="121" color="0,0,1"  begin="0" end="50" probability="0.24" type="vtype0"  from="E1" to="-E3" departLane="random" departPos="random" departSpeed="max"/>
    <flow id="122" color="0,0,1"  begin="0" end="50" probability="0.24" type="vtype0"  from="E2" to="-E0" departLane="random" departPos="random" departSpeed="max"/>
    <flow id="123" color="0,0,1"  begin="0" end="50" probability="0.24" type="vtype0"  from="E2" to="-E1" departLane="random" departPos="random" departSpeed="max"/>
    <flow id="124" color="0,0,1"  begin="0" end="50" probability="0.24" type="vtype0"  from="E2" to="-E3" departLane="random" departPos="random" departSpeed="max"/>
    <flow id="125" color="0,0,1"  begin="0" end="50" probability="0.24" type="vtype0"  from="E3" to="-E0" departLane="random" departPos="random" departSpeed="max"/>
    <flow id="126" color="0,0,1"  begin="0" end="50" probability="0.24" type="vtype0"  from="E3" to="-E1" departLane="random" departPos="random" departSpeed="max"/>
    <flow id="127" color="0,0,1"  begin="0" end="50" probability="0.24" type="vtype0"  from="E3" to="-E2" departLane="random" departPos="random" departSpeed="max"/>

    <!-- 普及率80% -->
    <!-- 最初にランダムに配置 -->
    <!-- <flow id="0" color="1,1,0"  begin="0" end="1" period="0.05021" type="vtype0"  from="E0" to="-E1" departLane="random" departPos="random" departSpeed="max"/>
    <flow id="1" color="1,1,0"  begin="0" end="1" period="0.05021" type="vtype0"  from="E0" to="-E2" departLane="random" departPos="random" departSpeed="max"/>
    <flow id="2" color="1,1,0"  begin="0" end="1" period="0.05021" type="vtype0"  from="E0" to="-E3" departLane="random" departPos="random" departSpeed="max"/>
    <flow id="3" color="1,1,0"  begin="0" end="1" period="0.05021" type="vtype0"  from="E1" to="-E0" departLane="random" departPos="random" departSpeed="max"/>
    <flow id="4" color="1,1,0"  begin="0" end="1" period="0.05021" type="vtype0"  from="E1" to="-E2" departLane="random" departPos="random" departSpeed="max"/>
    <flow id="5" color="1,1,0"  begin="0" end="1" period="0.05021" type="vtype0"  from="E1" to="-E3" departLane="random" departPos="random" departSpeed="max"/>
    <flow id="6" color="1,1,0"  begin="0" end="1" period="0.05021" type="vtype0"  from="E2" to="-E0" departLane="random" departPos="random" departSpeed="max"/>
    <flow id="7" color="1,1,0"  begin="0" end="1" period="0.05021" type="vtype0"  from="E2" to="-E1" departLane="random" departPos="random" departSpeed="max"/>
    <flow id="8" color="1,1,0"  begin="0" end="1" period="0.05021" type="vtype0"  from="E2" to="-E3" departLane="random" departPos="random" departSpeed="max"/>
    <flow id="9" color="1,1,0"  begin="0" end="1" period="0.05021" type="vtype0"  from="E3" to="-E0" departLane="random" departPos="random" departSpeed="max"/>