<?xml version="1.0" encoding="UTF-8"?>

<!-- generated on 2023-12-11 12:42:00 by Eclipse SUMO netedit Version 1.19.0
<configuration xmlns:xsi="http://www.w3.org/2001/XMLSchema-instance" xsi:noNamespaceSchemaLocation="http://sumo.dlr.de/xsd/neteditConfiguration.xsd">

    <input>
        <sumo-net-file value="/home/yuki/omnetpp-5.4.1/OpenCV2X/scenarios/manhattan/myroad/test.net.xml"/>
    </input>

    <output>
        <tls-file value="/home/yuki/omnetpp-5.4.1/OpenCV2X/scenarios/manhattan/myroad/6lane.tll.xml"/>
        <output-file value="/home/yuki/omnetpp-5.4.1/OpenCV2X/scenarios/manhattan/myroad/test.net.xml"/>
    </output>

    <processing>
        <geometry.min-radius.fix.railways value="false"/>
        <geometry.max-grade.fix value="false"/>
        <offset.disable-normalization value="true"/>
        <lefthand value="0"/>
    </processing>

    <junctions>
        <no-turnarounds value="true"/>
        <junctions.corner-detail value="5"/>
        <junctions.limit-turn-speed value="-1.00"/>
        <rectangular-lane-cut value="0"/>
    </junctions>

    <pedestrian>
        <walkingareas value="0"/>
    </pedestrian>

</configuration>
-->

<net version="1.16" junctionCornerDetail="5" xmlns:xsi="http://www.w3.org/2001/XMLSchema-instance" xsi:noNamespaceSchemaLocation="http://sumo.dlr.de/xsd/net_file.xsd">

    <location netOffset="0.00,0.00" convBoundary="0.00,0.00,750.00,1299.00" origBoundary="0.00,0.00,750.00,1299.00" projParameter="!"/>

    <edge id=":A0_0" function="internal">
        <lane id=":A0_0_0" index="0" speed="16.67" length="31.05" width="3.50" shape="-8.75,10.50 -7.55,2.08 -3.94,-3.94 2.08,-7.55 10.50,-8.75"/>
        <lane id=":A0_0_1" index="1" speed="16.67" length="25.40" width="3.50" shape="-5.25,10.50 -4.27,3.61 -1.31,-1.31 3.61,-4.27 10.50,-5.25"/>
        <lane id=":A0_0_2" index="2" speed="16.67" length="19.76" width="3.50" shape="-1.75,10.50 -0.98,5.14 1.31,1.31 5.14,-0.98 10.50,-1.75"/>
    </edge>
    <edge id=":A0_3" function="internal">
        <lane id=":A0_3_0" index="0" speed="16.67" length="2.82" width="3.50" shape="10.50,8.75 9.73,8.86 9.19,9.19 8.86,9.73 8.75,10.50"/>
        <lane id=":A0_3_1" index="1" speed="16.67" length="8.47" width="3.50" shape="10.50,5.25 8.20,5.58 6.56,6.56 5.58,8.20 5.25,10.50"/>
        <lane id=":A0_3_2" index="2" speed="16.67" length="14.11" width="3.50" shape="10.50,1.75 6.67,2.30 3.94,3.94 2.30,6.67 1.75,10.50"/>
    </edge>
    <edge id=":A1_0" function="internal">
        <lane id=":A1_0_0" index="0" speed="16.67" length="29.00" width="3.50" shape="-8.75,447.50 -8.75,418.50"/>
        <lane id=":A1_0_1" index="1" speed="16.67" length="29.00" width="3.50" shape="-5.25,447.50 -5.25,418.50"/>
    </edge>
    <edge id=":A1_2" function="internal">
        <lane id=":A1_2_0" index="0" speed="16.67" length="14.67" width="3.50" shape="-5.25,447.50 -4.02,438.86 -0.96,433.76"/>
        <lane id=":A1_2_1" index="1" speed="16.67" length="6.07" width="3.50" shape="-1.75,447.50 -0.89,441.49"/>
    </edge>
    <edge id=":A1_12" function="internal">
        <lane id=":A1_12_0" index="0" speed="16.67" length="17.18" width="3.50" shape="-0.96,433.76 -0.31,432.69 5.86,428.98 14.50,427.75"/>
    </edge>
    <edge id=":A1_13" function="internal">
        <lane id=":A1_13_0" index="0" speed="16.67" length="20.13" width="3.50" shape="-0.89,441.49 -0.73,440.39 2.31,435.31 7.39,432.27 14.50,431.25"/>
    </edge>
    <edge id=":A1_4" function="internal">
        <lane id=":A1_4_0" index="0" speed="16.67" length="9.27" width="3.50" shape="14.50,441.75 11.98,442.11 10.19,443.19 9.11,444.98 8.75,447.50"/>
        <lane id=":A1_4_1" index="1" speed="16.67" length="14.92" width="3.50" shape="14.50,438.25 10.45,438.83 7.56,440.56 5.83,443.45 5.25,447.50"/>
    </edge>
    <edge id=":A1_6" function="internal">
        <lane id=":A1_6_0" index="0" speed="16.67" length="31.85" width="3.50" shape="14.50,438.25 5.86,437.02 -0.31,433.31 -4.02,427.14 -5.25,418.50"/>
        <lane id=":A1_6_1" index="1" speed="16.67" length="26.21" width="3.50" shape="14.50,434.75 7.39,433.73 2.31,430.69 -0.73,425.61 -1.75,418.50"/>
    </edge>
    <edge id=":A1_8" function="internal">
        <lane id=":A1_8_0" index="0" speed="16.67" length="9.27" width="3.50" shape="8.75,418.50 9.11,421.02 10.19,422.81 11.98,423.89 14.50,424.25"/>
        <lane id=":A1_8_1" index="1" speed="16.67" length="14.92" width="3.50" shape="5.25,418.50 5.83,422.55 7.56,425.44 10.45,427.17 14.50,427.75"/>
    </edge>
    <edge id=":A1_10" function="internal">
        <lane id=":A1_10_0" index="0" speed="16.67" length="29.00" width="3.50" shape="5.25,418.50 5.25,447.50"/>
        <lane id=":A1_10_1" index="1" speed="16.67" length="29.00" width="3.50" shape="1.75,418.50 1.75,447.50"/>
    </edge>
    <edge id=":A2_0" function="internal">
        <lane id=":A2_0_0" index="0" speed="16.67" length="28.10" width="3.50" shape="-8.75,879.60 -8.75,851.50"/>
        <lane id=":A2_0_1" index="1" speed="16.67" length="28.10" width="3.50" shape="-5.25,879.60 -5.25,851.50"/>
        <lane id=":A2_0_2" index="2" speed="16.67" length="28.10" width="3.50" shape="-1.75,879.60 -1.75,851.50"/>
    </edge>
    <edge id=":A2_3" function="internal">
        <lane id=":A2_3_0" index="0" speed="16.67" length="7.01" width="3.50" shape="-1.75,879.60 -0.89,872.64"/>
        <lane id=":A2_3_1" index="1" speed="16.67" length="5.75" width="3.50" shape="-1.75,879.60 -0.89,873.91"/>
    </edge>
    <edge id=":A2_12" function="internal">
        <lane id=":A2_12_0" index="0" speed="16.67" length="21.33" width="3.50" shape="-0.89,872.64 -0.73,871.35 2.31,865.46 7.39,861.93 14.50,860.75"/>
    </edge>
    <edge id=":A2_13" function="internal">
        <lane id=":A2_13_0" index="0" speed="16.67" length="19.73" width="3.50" shape="-0.89,873.91 -0.73,872.88 2.31,868.09 7.39,865.21 14.50,864.25"/>
    </edge>
    <edge id=":A2_5" function="internal">
        <lane id=":A2_5_0" index="0" speed="16.67" length="9.15" width="3.50" shape="14.50,874.00 11.98,874.35 10.19,875.40 9.11,877.15 8.75,879.60"/>
    </edge>
    <edge id=":A2_6" function="internal">
        <lane id=":A2_6_0" index="0" speed="16.67" length="31.49" width="3.50" shape="14.50,870.80 5.86,869.59 -0.31,865.97 -4.02,859.94 -5.25,851.50"/>
        <lane id=":A2_6_1" index="1" speed="16.67" length="26.09" width="3.50" shape="14.50,867.60 7.39,866.59 2.31,863.58 -0.73,858.54 -1.75,851.50"/>
    </edge>
    <edge id=":A2_8" function="internal">
        <lane id=":A2_8_0" index="0" speed="16.67" length="9.27" width="3.50" shape="8.75,851.50 9.11,854.02 10.19,855.81 11.98,856.89 14.50,857.25"/>
    </edge>
    <edge id=":A2_9" function="internal">
        <lane id=":A2_9_0" index="0" speed="16.67" length="28.10" width="3.50" shape="8.75,851.50 8.75,879.60"/>
        <lane id=":A2_9_1" index="1" speed="16.67" length="28.10" width="3.50" shape="5.25,851.50 5.25,879.60"/>
        <lane id=":A2_9_2" index="2" speed="16.67" length="28.10" width="3.50" shape="1.75,851.50 1.75,879.60"/>
    </edge>
    <edge id=":A3_0" function="internal">
        <lane id=":A3_0_0" index="0" speed="16.67" length="31.05" width="3.50" shape="10.50,1307.75 2.08,1306.55 -3.94,1302.94 -7.55,1296.92 -8.75,1288.50"/>
        <lane id=":A3_0_1" index="1" speed="16.67" length="25.40" width="3.50" shape="10.50,1304.25 3.61,1303.27 -1.31,1300.31 -4.27,1295.39 -5.25,1288.50"/>
        <lane id=":A3_0_2" index="2" speed="16.67" length="19.76" width="3.50" shape="10.50,1300.75 5.14,1299.98 1.31,1297.69 -0.98,1293.86 -1.75,1288.50"/>
    </edge>
    <edge id=":A3_3" function="internal">
        <lane id=":A3_3_0" index="0" speed="16.67" length="2.82" width="3.50" shape="8.75,1288.50 8.86,1289.27 9.19,1289.81 9.73,1290.14 10.50,1290.25"/>
        <lane id=":A3_3_1" index="1" speed="16.67" length="8.47" width="3.50" shape="5.25,1288.50 5.58,1290.80 6.56,1292.44 8.20,1293.42 10.50,1293.75"/>
        <lane id=":A3_3_2" index="2" speed="16.67" length="14.11" width="3.50" shape="1.75,1288.50 2.30,1292.33 3.94,1295.06 6.67,1296.70 10.50,1297.25"/>
    </edge>
    <edge id=":B0_0" function="internal">
        <lane id=":B0_0_0" index="0" speed="16.67" length="9.27" width="3.50" shape="241.25,14.50 240.89,11.98 239.81,10.19 238.02,9.11 235.50,8.75"/>
        <lane id=":B0_0_1" index="1" speed="16.67" length="14.92" width="3.50" shape="244.75,14.50 244.17,10.45 242.44,7.56 239.55,5.83 235.50,5.25"/>
    </edge>
    <edge id=":B0_2" function="internal">
        <lane id=":B0_2_0" index="0" speed="16.67" length="31.85" width="3.50" shape="244.75,14.50 245.98,5.86 249.69,-0.31 255.86,-4.02 264.50,-5.25"/>
        <lane id=":B0_2_1" index="1" speed="16.67" length="26.21" width="3.50" shape="248.25,14.50 249.27,7.39 252.31,2.31 257.39,-0.73 264.50,-1.75"/>
    </edge>
    <edge id=":B0_4" function="internal">
        <lane id=":B0_4_0" index="0" speed="16.67" length="9.27" width="3.50" shape="264.50,8.75 261.98,9.11 260.19,10.19 259.11,11.98 258.75,14.50"/>
        <lane id=":B0_4_1" index="1" speed="16.67" length="14.92" width="3.50" shape="264.50,5.25 260.45,5.83 257.56,7.56 255.83,10.45 255.25,14.50"/>
    </edge>
    <edge id=":B0_6" function="internal">
        <lane id=":B0_6_0" index="0" speed="16.67" length="29.00" width="3.50" shape="264.50,5.25 235.50,5.25"/>
        <lane id=":B0_6_1" index="1" speed="16.67" length="29.00" width="3.50" shape="264.50,1.75 235.50,1.75"/>
    </edge>
    <edge id=":B0_8" function="internal">
        <lane id=":B0_8_0" index="0" speed="16.67" length="29.00" width="3.50" shape="235.50,-8.75 264.50,-8.75"/>
        <lane id=":B0_8_1" index="1" speed="16.67" length="29.00" width="3.50" shape="235.50,-5.25 264.50,-5.25"/>
    </edge>
    <edge id=":B0_10" function="internal">
        <lane id=":B0_10_0" index="0" speed="16.67" length="14.67" width="3.50" shape="235.50,-5.25 244.14,-4.02 249.24,-0.96"/>
        <lane id=":B0_10_1" index="1" speed="16.67" length="6.07" width="3.50" shape="235.50,-1.75 241.51,-0.89"/>
    </edge>
    <edge id=":B0_12" function="internal">
        <lane id=":B0_12_0" index="0" speed="16.67" length="17.18" width="3.50" shape="249.24,-0.96 250.31,-0.31 254.02,5.86 255.25,14.50"/>
    </edge>
    <edge id=":B0_13" function="internal">
        <lane id=":B0_13_0" index="0" speed="16.67" length="20.13" width="3.50" shape="241.51,-0.89 242.61,-0.73 247.69,2.31 250.73,7.39 251.75,14.50"/>
    </edge>
    <edge id=":B1_0" function="internal">
        <lane id=":B1_0_0" index="0" speed="16.67" length="9.27" width="3.50" shape="241.25,447.50 240.89,444.98 239.81,443.19 238.02,442.11 235.50,441.75"/>
    </edge>
    <edge id=":B1_1" function="internal">
        <lane id=":B1_1_0" index="0" speed="16.67" length="29.00" width="3.50" shape="244.75,447.50 244.75,418.50"/>
    </edge>
    <edge id=":B1_2" function="internal">
        <lane id=":B1_2_0" index="0" speed="16.67" length="13.10" width="3.50" shape="248.25,447.50 249.27,440.39 252.31,435.31"/>
    </edge>
    <edge id=":B1_12" function="internal">
        <lane id=":B1_12_0" index="0" speed="16.67" length="13.10" width="3.50" shape="252.31,435.31 257.39,432.27 264.50,431.25"/>
    </edge>
    <edge id=":B1_3" function="internal">
        <lane id=":B1_3_0" index="0" speed="16.67" length="9.27" width="3.50" shape="264.50,441.75 261.98,442.11 260.19,443.19 259.11,444.98 258.75,447.50"/>
    </edge>
    <edge id=":B1_4" function="internal">
        <lane id=":B1_4_0" index="0" speed="16.67" length="29.00" width="3.50" shape="264.50,438.25 235.50,438.25"/>
    </edge>
    <edge id=":B1_5" function="internal">
        <lane id=":B1_5_0" index="0" speed="16.67" length="13.10" width="3.50" shape="264.50,434.75 257.39,433.73 252.31,430.69"/>
    </edge>
    <edge id=":B1_13" function="internal">
        <lane id=":B1_13_0" index="0" speed="16.67" length="13.10" width="3.50" shape="252.31,430.69 249.27,425.61 248.25,418.50"/>
    </edge>
    <edge id=":B1_6" function="internal">
        <lane id=":B1_6_0" index="0" speed="16.67" length="9.27" width="3.50" shape="258.75,418.50 259.11,421.02 260.19,422.81 261.98,423.89 264.50,424.25"/>
    </edge>
    <edge id=":B1_7" function="internal">
        <lane id=":B1_7_0" index="0" speed="16.67" length="29.00" width="3.50" shape="255.25,418.50 255.25,447.50"/>
    </edge>
    <edge id=":B1_8" function="internal">
        <lane id=":B1_8_0" index="0" speed="16.67" length="13.10" width="3.50" shape="251.75,418.50 250.73,425.61 247.69,430.69"/>
    </edge>
    <edge id=":B1_14" function="internal">
        <lane id=":B1_14_0" index="0" speed="16.67" length="13.10" width="3.50" shape="247.69,430.69 242.61,433.73 235.50,434.75"/>
    </edge>
    <edge id=":B1_9" function="internal">
        <lane id=":B1_9_0" index="0" speed="16.67" length="9.27" width="3.50" shape="235.50,424.25 238.02,423.89 239.81,422.81 240.89,421.02 241.25,418.50"/>
    </edge>
    <edge id=":B1_10" function="internal">
        <lane id=":B1_10_0" index="0" speed="16.67" length="29.00" width="3.50" shape="235.50,427.75 264.50,427.75"/>
    </edge>
    <edge id=":B1_11" function="internal">
        <lane id=":B1_11_0" index="0" speed="16.67" length="13.10" width="3.50" shape="235.50,431.25 242.61,432.27 247.69,435.31"/>
    </edge>
    <edge id=":B1_15" function="internal">
        <lane id=":B1_15_0" index="0" speed="16.67" length="13.10" width="3.50" shape="247.69,435.31 250.73,440.39 251.75,447.50"/>
    </edge>
    <edge id=":B2_0" function="internal">
        <lane id=":B2_0_0" index="0" speed="16.67" length="9.89" shape="241.25,880.50 240.89,877.66 239.81,875.62 238.02,874.41 235.50,874.00"/>
    </edge>
    <edge id=":B2_1" function="internal">
        <lane id=":B2_1_0" index="0" speed="16.67" length="29.00" width="3.50" shape="244.75,880.50 244.75,851.50"/>
    </edge>
    <edge id=":B2_2" function="internal">
        <lane id=":B2_2_0" index="0" speed="16.67" length="13.10" width="3.50" shape="248.25,880.50 249.27,873.39 252.31,868.31"/>
    </edge>
    <edge id=":B2_12" function="internal">
        <lane id=":B2_12_0" index="0" speed="16.67" length="13.10" width="3.50" shape="252.31,868.31 257.39,865.27 264.50,864.25"/>
    </edge>
    <edge id=":B2_3" function="internal">
        <lane id=":B2_3_0" index="0" speed="16.67" length="9.27" width="3.50" shape="264.50,874.75 261.98,875.11 260.19,876.19 259.11,877.98 258.75,880.50"/>
    </edge>
    <edge id=":B2_4" function="internal">
        <lane id=":B2_4_0" index="0" speed="16.67" length="29.00" shape="264.50,871.25 235.50,870.80"/>
    </edge>
    <edge id=":B2_5" function="internal">
        <lane id=":B2_5_0" index="0" speed="16.67" length="13.10" width="3.50" shape="264.50,867.75 257.39,866.73 252.31,863.69"/>
    </edge>
    <edge id=":B2_13" function="internal">
        <lane id=":B2_13_0" index="0" speed="16.67" length="13.10" width="3.50" shape="252.31,863.69 249.27,858.61 248.25,851.50"/>
    </edge>
    <edge id=":B2_6" function="internal">
        <lane id=":B2_6_0" index="0" speed="16.67" length="9.27" width="3.50" shape="258.75,851.50 259.11,854.02 260.19,855.81 261.98,856.89 264.50,857.25"/>
    </edge>
    <edge id=":B2_7" function="internal">
        <lane id=":B2_7_0" index="0" speed="16.67" length="29.00" width="3.50" shape="255.25,851.50 255.25,880.50"/>
    </edge>
    <edge id=":B2_8" function="internal">
        <lane id=":B2_8_0" index="0" speed="16.67" length="13.00" shape="251.75,851.50 250.73,858.54 247.69,863.57"/>
    </edge>
    <edge id=":B2_14" function="internal">
        <lane id=":B2_14_0" index="0" speed="16.67" length="13.09" shape="247.69,863.57 242.61,866.59 235.50,867.60"/>
    </edge>
    <edge id=":B2_9" function="internal">
        <lane id=":B2_9_0" index="0" speed="16.67" length="9.27" width="3.50" shape="235.50,857.25 238.02,856.89 239.81,855.81 240.89,854.02 241.25,851.50"/>
    </edge>
    <edge id=":B2_10" function="internal">
        <lane id=":B2_10_0" index="0" speed="16.67" length="29.00" width="3.50" shape="235.50,860.75 264.50,860.75"/>
    </edge>
    <edge id=":B2_11" function="internal">
        <lane id=":B2_11_0" index="0" speed="16.67" length="13.00" width="3.50" shape="235.50,864.25 242.61,865.27 247.60,868.26"/>
    </edge>
    <edge id=":B2_15" function="internal">
        <lane id=":B2_15_0" index="0" speed="16.67" length="13.21" width="3.50" shape="247.60,868.26 247.69,868.31 250.73,873.39 251.75,880.50"/>
    </edge>
    <edge id=":B3_0" function="internal">
        <lane id=":B3_0_0" index="0" speed="16.67" length="29.00" width="3.50" shape="264.50,1307.75 235.50,1307.75"/>
        <lane id=":B3_0_1" index="1" speed="16.67" length="29.00" width="3.50" shape="264.50,1304.25 235.50,1304.25"/>
    </edge>
    <edge id=":B3_2" function="internal">
        <lane id=":B3_2_0" index="0" speed="16.67" length="14.67" width="3.50" shape="264.50,1304.25 255.86,1303.02 250.76,1299.96"/>
        <lane id=":B3_2_1" index="1" speed="16.67" length="6.07" width="3.50" shape="264.50,1300.75 258.49,1299.89"/>
    </edge>
    <edge id=":B3_12" function="internal">
        <lane id=":B3_12_0" index="0" speed="16.67" length="17.18" width="3.50" shape="250.76,1299.96 249.69,1299.31 245.98,1293.14 244.75,1284.50"/>
    </edge>
    <edge id=":B3_13" function="internal">
        <lane id=":B3_13_0" index="0" speed="16.67" length="20.13" width="3.50" shape="258.49,1299.89 257.39,1299.73 252.31,1296.69 249.27,1291.61 248.25,1284.50"/>
    </edge>
    <edge id=":B3_4" function="internal">
        <lane id=":B3_4_0" index="0" speed="16.67" length="9.27" width="3.50" shape="258.75,1284.50 259.11,1287.02 260.19,1288.81 261.98,1289.89 264.50,1290.25"/>
        <lane id=":B3_4_1" index="1" speed="16.67" length="14.92" width="3.50" shape="255.25,1284.50 255.83,1288.55 257.56,1291.44 260.45,1293.17 264.50,1293.75"/>
    </edge>
    <edge id=":B3_6" function="internal">
        <lane id=":B3_6_0" index="0" speed="16.67" length="31.85" width="3.50" shape="255.25,1284.50 254.02,1293.14 250.31,1299.31 244.14,1303.02 235.50,1304.25"/>
        <lane id=":B3_6_1" index="1" speed="16.67" length="26.21" width="3.50" shape="251.75,1284.50 250.73,1291.61 247.69,1296.69 242.61,1299.73 235.50,1300.75"/>
    </edge>
    <edge id=":B3_8" function="internal">
        <lane id=":B3_8_0" index="0" speed="16.67" length="9.27" width="3.50" shape="235.50,1290.25 238.02,1289.89 239.81,1288.81 240.89,1287.02 241.25,1284.50"/>
        <lane id=":B3_8_1" index="1" speed="16.67" length="14.92" width="3.50" shape="235.50,1293.75 239.55,1293.17 242.44,1291.44 244.17,1288.55 244.75,1284.50"/>
    </edge>
    <edge id=":B3_10" function="internal">
        <lane id=":B3_10_0" index="0" speed="16.67" length="29.00" width="3.50" shape="235.50,1293.75 264.50,1293.75"/>
        <lane id=":B3_10_1" index="1" speed="16.67" length="29.00" width="3.50" shape="235.50,1297.25 264.50,1297.25"/>
    </edge>
    <edge id=":C0_0" function="internal">
        <lane id=":C0_0_0" index="0" speed="16.67" length="9.27" width="3.50" shape="491.25,14.50 490.89,11.98 489.81,10.19 488.02,9.11 485.50,8.75"/>
        <lane id=":C0_0_1" index="1" speed="16.67" length="14.92" width="3.50" shape="494.75,14.50 494.17,10.45 492.44,7.56 489.55,5.83 485.50,5.25"/>
    </edge>
    <edge id=":C0_2" function="internal">
        <lane id=":C0_2_0" index="0" speed="16.67" length="31.85" width="3.50" shape="494.75,14.50 495.98,5.86 499.69,-0.31 505.86,-4.02 514.50,-5.25"/>
        <lane id=":C0_2_1" index="1" speed="16.67" length="26.21" width="3.50" shape="498.25,14.50 499.27,7.39 502.31,2.31 507.39,-0.73 514.50,-1.75"/>
    </edge>
    <edge id=":C0_4" function="internal">
        <lane id=":C0_4_0" index="0" speed="16.67" length="9.27" width="3.50" shape="514.50,8.75 511.98,9.11 510.19,10.19 509.11,11.98 508.75,14.50"/>
    </edge>
    <edge id=":C0_5" function="internal">
        <lane id=":C0_5_0" index="0" speed="16.67" length="29.00" width="3.50" shape="514.50,8.75 485.50,8.75"/>
    </edge>
    <edge id=":C0_6" function="internal">
        <lane id=":C0_6_0" index="0" speed="16.67" length="4.50" width="3.50" shape="514.50,5.25 510.45,5.83 510.10,6.04"/>
    </edge>
    <edge id=":C0_7" function="internal">
        <lane id=":C0_7_0" index="0" speed="16.67" length="29.00" width="3.50" shape="514.50,5.25 485.50,5.25"/>
        <lane id=":C0_7_1" index="1" speed="16.67" length="29.00" width="3.50" shape="514.50,1.75 485.50,1.75"/>
    </edge>
    <edge id=":C0_13" function="internal">
        <lane id=":C0_13_0" index="0" speed="16.67" length="10.42" width="3.50" shape="510.10,6.04 507.56,7.56 505.83,10.45 505.25,14.50"/>
    </edge>
    <edge id=":C0_9" function="internal">
        <lane id=":C0_9_0" index="0" speed="16.67" length="29.00" width="3.50" shape="485.50,-8.75 514.50,-8.75"/>
        <lane id=":C0_9_1" index="1" speed="16.67" length="29.00" width="3.50" shape="485.50,-5.25 514.50,-5.25"/>
    </edge>
    <edge id=":C0_11" function="internal">
        <lane id=":C0_11_0" index="0" speed="16.67" length="14.67" width="3.50" shape="485.50,-5.25 494.14,-4.02 499.24,-0.96"/>
        <lane id=":C0_11_1" index="1" speed="16.67" length="6.07" width="3.50" shape="485.50,-1.75 491.51,-0.89"/>
    </edge>
    <edge id=":C0_14" function="internal">
        <lane id=":C0_14_0" index="0" speed="16.67" length="17.18" width="3.50" shape="499.24,-0.96 500.31,-0.31 504.02,5.86 505.25,14.50"/>
    </edge>
    <edge id=":C0_15" function="internal">
        <lane id=":C0_15_0" index="0" speed="16.67" length="20.13" width="3.50" shape="491.51,-0.89 492.61,-0.73 497.69,2.31 500.73,7.39 501.75,14.50"/>
    </edge>
    <edge id=":C1_0" function="internal">
        <lane id=":C1_0_0" index="0" speed="16.67" length="9.27" width="3.50" shape="491.25,447.50 490.89,444.98 489.81,443.19 488.02,442.11 485.50,441.75"/>
    </edge>
    <edge id=":C1_1" function="internal">
        <lane id=":C1_1_0" index="0" speed="16.67" length="29.00" width="3.50" shape="494.75,447.50 494.75,418.50"/>
    </edge>
    <edge id=":C1_2" function="internal">
        <lane id=":C1_2_0" index="0" speed="16.67" length="13.10" width="3.50" shape="498.25,447.50 499.27,440.39 502.31,435.31"/>
    </edge>
    <edge id=":C1_12" function="internal">
        <lane id=":C1_12_0" index="0" speed="16.67" length="13.10" width="3.50" shape="502.31,435.31 507.39,432.27 514.50,431.25"/>
    </edge>
    <edge id=":C1_3" function="internal">
        <lane id=":C1_3_0" index="0" speed="16.67" length="9.27" width="3.50" shape="514.50,441.75 511.98,442.11 510.19,443.19 509.11,444.98 508.75,447.50"/>
    </edge>
    <edge id=":C1_4" function="internal">
        <lane id=":C1_4_0" index="0" speed="16.67" length="29.00" width="3.50" shape="514.50,438.25 485.50,438.25"/>
    </edge>
    <edge id=":C1_5" function="internal">
        <lane id=":C1_5_0" index="0" speed="16.67" length="13.10" width="3.50" shape="514.50,434.75 507.39,433.73 502.31,430.69"/>
    </edge>
    <edge id=":C1_13" function="internal">
        <lane id=":C1_13_0" index="0" speed="16.67" length="13.10" width="3.50" shape="502.31,430.69 499.27,425.61 498.25,418.50"/>
    </edge>
    <edge id=":C1_6" function="internal">
        <lane id=":C1_6_0" index="0" speed="16.67" length="9.27" width="3.50" shape="508.75,418.50 509.11,421.02 510.19,422.81 511.98,423.89 514.50,424.25"/>
    </edge>
    <edge id=":C1_7" function="internal">
        <lane id=":C1_7_0" index="0" speed="16.67" length="29.00" width="3.50" shape="505.25,418.50 505.25,447.50"/>
    </edge>
    <edge id=":C1_8" function="internal">
        <lane id=":C1_8_0" index="0" speed="16.67" length="13.10" width="3.50" shape="501.75,418.50 500.73,425.61 497.69,430.69"/>
    </edge>
    <edge id=":C1_14" function="internal">
        <lane id=":C1_14_0" index="0" speed="16.67" length="13.10" width="3.50" shape="497.69,430.69 492.61,433.73 485.50,434.75"/>
    </edge>
    <edge id=":C1_9" function="internal">
        <lane id=":C1_9_0" index="0" speed="16.67" length="9.27" width="3.50" shape="485.50,424.25 488.02,423.89 489.81,422.81 490.89,421.02 491.25,418.50"/>
    </edge>
    <edge id=":C1_10" function="internal">
        <lane id=":C1_10_0" index="0" speed="16.67" length="29.00" width="3.50" shape="485.50,427.75 514.50,427.75"/>
    </edge>
    <edge id=":C1_11" function="internal">
        <lane id=":C1_11_0" index="0" speed="16.67" length="13.10" width="3.50" shape="485.50,431.25 492.61,432.27 497.69,435.31"/>
    </edge>
    <edge id=":C1_15" function="internal">
        <lane id=":C1_15_0" index="0" speed="16.67" length="13.10" width="3.50" shape="497.69,435.31 500.73,440.39 501.75,447.50"/>
    </edge>
    <edge id=":C2_0" function="internal">
        <lane id=":C2_0_0" index="0" speed="16.67" length="9.27" width="3.50" shape="491.25,880.50 490.89,877.98 489.81,876.19 488.02,875.11 485.50,874.75"/>
    </edge>
    <edge id=":C2_1" function="internal">
        <lane id=":C2_1_0" index="0" speed="16.67" length="29.00" width="3.50" shape="494.75,880.50 494.75,851.50"/>
    </edge>
    <edge id=":C2_2" function="internal">
        <lane id=":C2_2_0" index="0" speed="16.67" length="13.10" width="3.50" shape="498.25,880.50 499.27,873.39 502.31,868.31"/>
    </edge>
    <edge id=":C2_12" function="internal">
        <lane id=":C2_12_0" index="0" speed="16.67" length="13.10" width="3.50" shape="502.31,868.31 507.39,865.27 514.50,864.25"/>
    </edge>
    <edge id=":C2_3" function="internal">
        <lane id=":C2_3_0" index="0" speed="16.67" length="9.27" width="3.50" shape="514.50,874.75 511.98,875.11 510.19,876.19 509.11,877.98 508.75,880.50"/>
    </edge>
    <edge id=":C2_4" function="internal">
        <lane id=":C2_4_0" index="0" speed="16.67" length="29.00" width="3.50" shape="514.50,871.25 485.50,871.25"/>
    </edge>
    <edge id=":C2_5" function="internal">
        <lane id=":C2_5_0" index="0" speed="16.67" length="13.10" width="3.50" shape="514.50,867.75 507.39,866.73 502.31,863.69"/>
    </edge>
    <edge id=":C2_13" function="internal">
        <lane id=":C2_13_0" index="0" speed="16.67" length="13.10" width="3.50" shape="502.31,863.69 499.27,858.61 498.25,851.50"/>
    </edge>
    <edge id=":C2_6" function="internal">
        <lane id=":C2_6_0" index="0" speed="16.67" length="9.27" width="3.50" shape="508.75,851.50 509.11,854.02 510.19,855.81 511.98,856.89 514.50,857.25"/>
    </edge>
    <edge id=":C2_7" function="internal">
        <lane id=":C2_7_0" index="0" speed="16.67" length="29.00" width="3.50" shape="505.25,851.50 505.25,880.50"/>
    </edge>
    <edge id=":C2_8" function="internal">
        <lane id=":C2_8_0" index="0" speed="16.67" length="13.10" width="3.50" shape="501.75,851.50 500.73,858.61 497.69,863.69"/>
    </edge>
    <edge id=":C2_14" function="internal">
        <lane id=":C2_14_0" index="0" speed="16.67" length="13.10" width="3.50" shape="497.69,863.69 492.61,866.73 485.50,867.75"/>
    </edge>
    <edge id=":C2_9" function="internal">
        <lane id=":C2_9_0" index="0" speed="16.67" length="9.27" width="3.50" shape="485.50,857.25 488.02,856.89 489.81,855.81 490.89,854.02 491.25,851.50"/>
    </edge>
    <edge id=":C2_10" function="internal">
        <lane id=":C2_10_0" index="0" speed="16.67" length="29.00" width="3.50" shape="485.50,860.75 514.50,860.75"/>
    </edge>
    <edge id=":C2_11" function="internal">
        <lane id=":C2_11_0" index="0" speed="16.67" length="13.10" width="3.50" shape="485.50,864.25 492.61,865.27 497.69,868.31"/>
    </edge>
    <edge id=":C2_15" function="internal">
        <lane id=":C2_15_0" index="0" speed="16.67" length="13.10" width="3.50" shape="497.69,868.31 500.73,873.39 501.75,880.50"/>
    </edge>
    <edge id=":C3_0" function="internal">
        <lane id=":C3_0_0" index="0" speed="16.67" length="29.00" width="3.50" shape="514.50,1307.75 485.50,1307.75"/>
        <lane id=":C3_0_1" index="1" speed="16.67" length="29.00" width="3.50" shape="514.50,1304.25 485.50,1304.25"/>
    </edge>
    <edge id=":C3_2" function="internal">
        <lane id=":C3_2_0" index="0" speed="16.67" length="14.67" width="3.50" shape="514.50,1304.25 505.86,1303.02 500.76,1299.96"/>
        <lane id=":C3_2_1" index="1" speed="16.67" length="6.07" width="3.50" shape="514.50,1300.75 508.49,1299.89"/>
    </edge>
    <edge id=":C3_12" function="internal">
        <lane id=":C3_12_0" index="0" speed="16.67" length="17.18" width="3.50" shape="500.76,1299.96 499.69,1299.31 495.98,1293.14 494.75,1284.50"/>
    </edge>
    <edge id=":C3_13" function="internal">
        <lane id=":C3_13_0" index="0" speed="16.67" length="20.13" width="3.50" shape="508.49,1299.89 507.39,1299.73 502.31,1296.69 499.27,1291.61 498.25,1284.50"/>
    </edge>
    <edge id=":C3_4" function="internal">
        <lane id=":C3_4_0" index="0" speed="16.67" length="9.27" width="3.50" shape="508.75,1284.50 509.11,1287.02 510.19,1288.81 511.98,1289.89 514.50,1290.25"/>
        <lane id=":C3_4_1" index="1" speed="16.67" length="14.92" width="3.50" shape="505.25,1284.50 505.83,1288.55 507.56,1291.44 510.45,1293.17 514.50,1293.75"/>
    </edge>
    <edge id=":C3_6" function="internal">
        <lane id=":C3_6_0" index="0" speed="16.67" length="31.85" width="3.50" shape="505.25,1284.50 504.02,1293.14 500.31,1299.31 494.14,1303.02 485.50,1304.25"/>
        <lane id=":C3_6_1" index="1" speed="16.67" length="26.21" width="3.50" shape="501.75,1284.50 500.73,1291.61 497.69,1296.69 492.61,1299.73 485.50,1300.75"/>
    </edge>
    <edge id=":C3_8" function="internal">
        <lane id=":C3_8_0" index="0" speed="16.67" length="9.27" width="3.50" shape="485.50,1290.25 488.02,1289.89 489.81,1288.81 490.89,1287.02 491.25,1284.50"/>
        <lane id=":C3_8_1" index="1" speed="16.67" length="14.92" width="3.50" shape="485.50,1293.75 489.55,1293.17 492.44,1291.44 494.17,1288.55 494.75,1284.50"/>
    </edge>
    <edge id=":C3_10" function="internal">
        <lane id=":C3_10_0" index="0" speed="16.67" length="29.00" width="3.50" shape="485.50,1293.75 514.50,1293.75"/>