<?xml version="1.0" encoding="UTF-8"?>

<!-- generated on 2023-12-18 21:04:37 by Eclipse SUMO netedit Version 1.19.0
<configuration xmlns:xsi="http://www.w3.org/2001/XMLSchema-instance" xsi:noNamespaceSchemaLocation="http://sumo.dlr.de/xsd/neteditConfiguration.xsd">

    <input>
        <sumo-net-file value="/home/yuki/omnetpp-5.4.1/OpenCV2X/scenarios/manhattan/myroad/test.net.xml"/>
    </input>

    <output>
        <output-file value="/home/yuki/omnetpp-5.4.1/OpenCV2X/scenarios/manhattan/myroad/test.net.xml"/>
    </output>

    <processing>
        <geometry.min-radius.fix.railways value="false"/>
        <geometry.max-grade.fix value="false"/>
        <offset.disable-normalization value="true"/>
        <lefthand value="0"/>
    </processing>

    <junctions>
        <no-turnarounds value="true"/>
        <junctions.corner-detail value="5"/>
        <junctions.limit-turn-speed value="5.50"/>
        <rectangular-lane-cut value="0"/>
    </junctions>

    <pedestrian>
        <walkingareas value="0"/>
    </pedestrian>

</configuration>
-->

<net version="1.16" junctionCornerDetail="5" limitTurnSpeed="5.50" xmlns:xsi="http://www.w3.org/2001/XMLSchema-instance" xsi:noNamespaceSchemaLocation="http://sumo.dlr.de/xsd/net_file.xsd">

    <location netOffset="0.00,0.00" convBoundary="-1000.00,-1000.00,1000.00,1000.00" origBoundary="-10000000000.00,-10000000000.00,10000000000.00,10000000000.00" projParameter="!"/>

    <edge id=":J1_0" function="internal">
        <lane id=":J1_0_0" index="0" speed="6.62" length="9.27" width="3.50" shape="-12.25,18.00 -12.61,15.48 -13.69,13.69 -15.48,12.61 -18.00,12.25"/>
    </edge>
    <edge id=":J1_1" function="internal">
        <lane id=":J1_1_0" index="0" speed="16.67" length="36.00" width="3.50" shape="-12.25,18.00 -12.25,-18.00"/>
        <lane id=":J1_1_1" index="1" speed="16.67" length="36.00" width="3.50" shape="-8.75,18.00 -8.75,-18.00"/>
        <lane id=":J1_1_2" index="2" speed="16.67" length="36.00" width="3.50" shape="-5.25,18.00 -5.25,-18.00"/>
        <lane id=":J1_1_3" index="3" speed="16.67" length="36.00" width="3.50" shape="-1.75,18.00 -1.75,-18.00"/>
    </edge>
    <edge id=":J1_5" function="internal">
        <lane id=":J1_5_0" index="0" speed="11.77" length="6.07" width="3.50" shape="-1.75,18.00 -0.89,11.99"/>
    </edge>
    <edge id=":J1_24" function="internal">
        <lane id=":J1_24_0" index="0" speed="11.77" length="25.78" width="3.50" shape="-0.89,11.99 -0.52,9.36 3.19,3.19 9.36,-0.52 18.00,-1.75"/>
    </edge>
    <edge id=":J1_6" function="internal">
        <lane id=":J1_6_0" index="0" speed="6.62" length="9.27" width="3.50" shape="18.00,12.25 15.48,12.61 13.69,13.69 12.61,15.48 12.25,18.00"/>
    </edge>
    <edge id=":J1_7" function="internal">
        <lane id=":J1_7_0" index="0" speed="16.67" length="36.00" width="3.50" shape="18.00,12.25 -18.00,12.25"/>
        <lane id=":J1_7_1" index="1" speed="16.67" length="36.00" width="3.50" shape="18.00,8.75 -18.00,8.75"/>
        <lane id=":J1_7_2" index="2" speed="16.67" length="36.00" width="3.50" shape="18.00,5.25 -18.00,5.25"/>
        <lane id=":J1_7_3" index="3" speed="16.67" length="36.00" width="3.50" shape="18.00,1.75 -18.00,1.75"/>
    </edge>
    <edge id=":J1_11" function="internal">
        <lane id=":J1_11_0" index="0" speed="11.77" length="6.07" width="3.50" shape="18.00,1.75 11.99,0.89"/>
    </edge>
    <edge id=":J1_25" function="internal">
        <lane id=":J1_25_0" index="0" speed="11.77" length="25.78" width="3.50" shape="11.99,0.89 9.36,0.52 3.19,-3.19 -0.52,-9.36 -1.75,-18.00"/>
    </edge>
    <edge id=":J1_12" function="internal">
        <lane id=":J1_12_0" index="0" speed="6.62" length="9.27" width="3.50" shape="12.25,-18.00 12.61,-15.48 13.69,-13.69 15.48,-12.61 18.00,-12.25"/>
    </edge>
    <edge id=":J1_13" function="internal">
        <lane id=":J1_13_0" index="0" speed="16.67" length="36.00" width="3.50" shape="12.25,-18.00 12.25,18.00"/>
        <lane id=":J1_13_1" index="1" speed="16.67" length="36.00" width="3.50" shape="8.75,-18.00 8.75,18.00"/>
        <lane id=":J1_13_2" index="2" speed="16.67" length="36.00" width="3.50" shape="5.25,-18.00 5.25,18.00"/>
        <lane id=":J1_13_3" index="3" speed="16.67" length="36.00" width="3.50" shape="1.75,-18.00 1.75,18.00"/>
    </edge>
    <edge id=":J1_17" function="internal">
        <lane id=":J1_17_0" index="0" speed="11.77" length="6.07" width="3.50" shape="1.75,-18.00 0.89,-11.99"/>
    </edge>
    <edge id=":J1_26" function="internal">
        <lane id=":J1_26_0" index="0" speed="11.77" length="25.78" width="3.50" shape="0.89,-11.99 0.52,-9.36 -3.19,-3.19 -9.36,0.52 -18.00,1.75"/>
    </edge>
    <edge id=":J1_18" function="internal">
        <lane id=":J1_18_0" index="0" speed="6.62" length="9.27" width="3.50" shape="-18.00,-12.25 -15.48,-12.61 -13.69,-13.69 -12.61,-15.48 -12.25,-18.00"/>
    </edge>
    <edge id=":J1_19" function="internal">
        <lane id=":J1_19_0" index="0" speed="16.67" length="36.00" width="3.50" shape="-18.00,-12.25 18.00,-12.25"/>
        <lane id=":J1_19_1" index="1" speed="16.67" length="36.00" width="3.50" shape="-18.00,-8.75 18.00,-8.75"/>
        <lane id=":J1_19_2" index="2" speed="16.67" length="36.00" width="3.50" shape="-18.00,-5.25 18.00,-5.25"/>
        <lane id=":J1_19_3" index="3" speed="16.67" length="36.00" width="3.50" shape="-18.00,-1.75 18.00,-1.75"/>
    </edge>
    <edge id=":J1_23" function="internal">
        <lane id=":J1_23_0" index="0" speed="11.77" length="6.07" width="3.50" shape="-18.00,-1.75 -11.99,-0.89"/>
    </edge>
    <edge id=":J1_27" function="internal">
        <lane id=":J1_27_0" index="0" speed="11.77" length="25.78" width="3.50" shape="-11.99,-0.89 -9.36,-0.52 -3.19,3.19 0.52,9.36 1.75,18.00"/>
    </edge>

    <edge id="-E0" from="J1" to="J0" priority="-1">
        <lane id="-E0_0" index="0" speed="16.67" length="982.00" width="3.50" shape="-18.00,12.25 -1000.00,12.25"/>
        <lane id="-E0_1" index="1" speed="16.67" length="982.00" width="3.50" shape="-18.00,8.75 -1000.00,8.75"/>
        <lane id="-E0_2" index="2" speed="16.67" length="982.00" width="3.50" shape="-18.00,5.25 -1000.00,5.25"/>
        <lane id="-E0_3" index="3" speed="16.67" length="982.00" width="3.50" shape="-18.00,1.75 -1000.00,1.75"/>
    </edge>
    <edge id="-E1" from="J1" to="J2" priority="-1">
        <lane id="-E1_0" index="0" speed="16.67" length="982.00" width="3.50" shape="12.25,18.00 12.25,1000.00"/>
        <lane id="-E1_1" index="1" speed="16.67" length="982.00" width="3.50" shape="8.75,18.00 8.75,1000.00"/>
        <lane id="-E1_2" index="2" speed="16.67" length="982.00" width="3.50" shape="5.25,18.00 5.25,1000.00"/>
        <lane id="-E1_3" index="3" speed="16.67" length="982.00" width="3.50" shape="1.75,18.00 1.75,1000.00"/>
    </edge>
    <edge id="-E2" from="J1" to="J3" priority="-1">
        <lane id="-E2_0" index="0" speed="16.67" length="982.00" width="3.50" shape="-12.25,-18.00 -12.25,-1000.00"/>
        <lane id="-E2_1" index="1" speed="16.67" length="982.00" width="3.50" shape="-8.75,-18.00 -8.75,-1000.00"/>
        <lane id="-E2_2" index="2" speed="16.67" length="982.00" width="3.50" shape="-5.25,-18.00 -5.25,-1000.00"/>
        <lane id="-E2_3" index="3" speed="16.67" length="982.00" width="3.50" shape="-1.75,-18.00 -1.75,-1000.00"/>
    </edge>
    <edge id="-E3" from="J1" to="J4" priority="-1">
        <lane id="-E3_0" index="0" speed="16.67" length="982.00" width="3.50" shape="18.00,-12.25 1000.00,-12.25"/>
        <lane id="-E3_1" index="1" speed="16.67" length="982.00" width="3.50" shape="18.00,-8.75 1000.00,-8.75"/>
        <lane id="-E3_2" index="2" speed="16.67" length="982.00" width="3.50" shape="18.00,-5.25 1000.00,-5.25"/>
        <lane id="-E3_3" index="3" speed="16.67" length="982.00" width="3.50" shape="18.00,-1.75 1000.00,-1.75"/>
    </edge>
    <edge id="E0" from="J0" to="J1" priority="-1">
        <lane id="E0_0" index="0" speed="16.67" length="982.00" width="3.50" shape="-1000.00,-12.25 -18.00,-12.25"/>
        <lane id="E0_1" index="1" speed="16.67" length="982.00" width="3.50" shape="-1000.00,-8.75 -18.00,-8.75"/>
        <lane id="E0_2" index="2" speed="16.67" length="982.00" width="3.50" shape="-1000.00,-5.25 -18.00,-5.25"/>
        <lane id="E0_3" index="3" speed="16.67" length="982.00" width="3.50" shape="-1000.00,-1.75 -18.00,-1.75"/>
    </edge>
    <edge id="E1" from="J2" to="J1" priority="-1">
        <lane id="E1_0" index="0" speed="16.67" length="982.00" width="3.50" shape="-12.25,1000.00 -12.25,18.00"/>
        <lane id="E1_1" index="1" speed="16.67" length="982.00" width="3.50" shape="-8.75,1000.00 -8.75,18.00"/>
        <lane id="E1_2" index="2" speed="16.67" length="982.00" width="3.50" shape="-5.25,1000.00 -5.25,18.00"/>
        <lane id="E1_3" index="3" speed="16.67" length="982.00" width="3.50" shape="-1.75,1000.00 -1.75,18.00"/>
    </edge>
    <edge id="E2" from="J3" to="J1" priority="-1">
        <lane id="E2_0" index="0" speed="16.67" length="982.00" width="3.50" shape="12.25,-1000.00 12.25,-18.00"/>
        <lane id="E2_1" index="1" speed="16.67" length="982.00" width="3.50" shape="8.75,-1000.00 8.75,-18.00"/>
        <lane id="E2_2" index="2" speed="16.67" length="982.00" width="3.50" shape="5.25,-1000.00 5.25,-18.00"/>
        <lane id="E2_3" index="3" speed="16.67" length="982.00" width="3.50" shape="1.75,-1000.00 1.75,-18.00"/>
    </edge>
    <edge id="E3" from="J4" to="J1" priority="-1">
        <lane id="E3_0" index="0" speed="16.67" length="982.00" width="3.50" shape="1000.00,12.25 18.00,12.25"/>
        <lane id="E3_1" index="1" speed="16.67" length="982.00" width="3.50" shape="1000.00,8.75 18.00,8.75"/>
        <lane id="E3_2" index="2" speed="16.67" length="982.00" width="3.50" shape="1000.00,5.25 18.00,5.25"/>
        <lane id="E3_3" index="3" speed="16.67" length="982.00" width="3.50" shape="1000.00,1.75 18.00,1.75"/>
    </edge>

    <tlLogic id="J1" type="delay_based" programID="0" offset="0">
        <phase duration="41" state="GGGGGgrrrrrrGGGGGgrrrrrr" minDur="7" maxDur="25"/>
        <phase duration="4"  state="yyyyyyrrrrrryyyyyyrrrrrr"/>
        <phase duration="41" state="rrrrrrGGGGGgrrrrrrGGGGGg" minDur="7" maxDur="25"/>
        <phase duration="4"  state="rrrrrryyyyyyrrrrrryyyyyy"/>
    </tlLogic>

    <junction id="J0" type="dead_end" x="-1000.00" y="0.00" incLanes="-E0_0 -E0_1 -E0_2 -E0_3" intLanes="" shape="-1000.00,0.00 -1000.00,14.00 -1000.00,0.00"/>
    <junction id="J1" type="traffic_light" x="0.00" y="0.00" incLanes="E1_0 E1_1 E1_2 E1_3 E3_0 E3_1 E3_2 E3_3 E2_0 E2_1 E2_2 E2_3 E0_0 E0_1 E0_2 E0_3" intLanes=":J1_0_0 :J1_1_0 :J1_1_1 :J1_1_2 :J1_1_3 :J1_24_0 :J1_6_0 :J1_7_0 :J1_7_1 :J1_7_2 :J1_7_3 :J1_25_0 :J1_12_0 :J1_13_0 :J1_13_1 :J1_13_2 :J1_13_3 :J1_26_0 :J1_18_0 :J1_19_0 :J1_19_1 :J1_19_2 :J1_19_3 :J1_27_0" shape="-14.00,18.00 14.00,18.00 14.44,15.78 15.00,15.00 15.78,14.44 16.78,14.11 18.00,14.00 18.00,-14.00 15.78,-14.44 15.00,-15.00 14.44,-15.78 14.11,-16.78 14.00,-18.00 -14.00,-18.00 -14.44,-15.78 -15.00,-15.00 -15.78,-14.44 -16.78,-14.11 -18.00,-14.00 -18.00,14.00 -15.78,14.44 -15.00,15.00 -14.44,15.78 -14.11,16.78">
        <request index="0"  response="000000000000000000000000" foes="000000000000011110000000" cont="0"/>
        <request index="1"  response="100000000000100000000000" foes="111111100000111110000000" cont="0"/>
        <request index="2"  response="100000000000100000000000" foes="111111100000111110000000" cont="0"/>
        <request index="3"  response="100000000000100000000000" foes="111111100000111110000000" cont="0"/>
        <request index="4"  response="100000000000100000000000" foes="111111100000111110000000" cont="0"/>
        <request index="5"  response="100000011110100000000000" foes="111110011110111110000000" cont="1"/>
        <request index="6"  response="000000011110000000000000" foes="000000011110000000000000" cont="0"/>
        <request index="7"  response="000000111110000000111111" foes="100000111110000000111111" cont="0"/>
        <request index="8"  response="000000111110000000111111" foes="100000111110000000111111" cont="0"/>
        <request index="9"  response="000000111110000000111111" foes="100000111110000000111111" cont="0"/>
        <request index="10" response="000000111110000000111111" foes="100000111110000000111111" cont="0"/>
        <request index="11" response="011110111110000000111110" foes="011110111110000000111110" cont="1"/>
        <request index="12" response="000000000000000000000000" foes="011110000000000000000000" cont="0"/>
        <request index="13" response="100000000000100000000000" foes="111110000000111111100000" cont="0"/>
        <request index="14" response="100000000000100000000000" foes="111110000000111111100000" cont="0"/>
        <request index="15" response="100000000000100000000000" foes="111110000000111111100000" cont="0"/>
        <request index="16" response="100000000000100000000000" foes="111110000000111111100000" cont="0"/>
        <request index="17" response="100000000000100000011110" foes="111110000000111110011110" cont="1"/>
        <request index="18" response="000000000000000000011110" foes="000000000000000000011110" cont="0"/>
        <request index="19" response="000000111111000000111110" foes="000000111111100000111110" cont="0"/>
        <request index="20" response="000000111111000000111110" foes="000000111111100000111110" cont="0"/>
        <request index="21" response="000000111111000000111110" foes="000000111111100000111110" cont="0"/>
        <request index="22" response="000000111111000000111110" foes="000000111111100000111110" cont="0"/>
        <request index="23" response="000000111110011110111110" foes="000000111110011110111110" cont="1"/>
    </junction>
    <junction id="J2" type="dead_end" x="0.00" y="1000.00" incLanes="-E1_0 -E1_1 -E1_2 -E1_3" intLanes="" shape="0.00,1000.00 14.00,1000.00 0.00,1000.00"/>
    <junction id="J3" type="dead_end" x="0.00" y="-1000.00" incLanes="-E2_0 -E2_1 -E2_2 -E2_3" intLanes="" shape="0.00,-1000.00 -14.00,-1000.00 0.00,-1000.00"/>
    <junction id="J4" type="dead_end" x="1000.00" y="0.00" incLanes="-E3_0 -E3_1 -E3_2 -E3_3" intLanes="" shape="1000.00,0.00 1000.00,-14.00 1000.00,0.00"/>

    <junction id=":J1_24_0" type="internal" x="-0.89" y="11.99" incLanes=":J1_5_0 E2_0 E2_1 E2_2 E2_3" intLanes=":J1_7_0 :J1_7_1 :J1_7_2 :J1_7_3 :J1_11_0 :J1_12_0 :J1_13_0 :J1_13_1 :J1_13_2 :J1_13_3 :J1_19_0 :J1_19_1 :J1_19_2 :J1_19_3 :J1_23_0"/>
    <junction id=":J1_25_0" type="internal" x="11.99" y="0.89" incLanes=":J1_11_0 E0_0 E0_1 E0_2 E0_3" intLanes=":J1_1_0 :J1_1_1 :J1_1_2 :J1_1_3 :J1_5_0 :J1_13_0 :J1_13_1 :J1_13_2 :J1_13_3 :J1_17_0 :J1_18_0 :J1_19_0 :J1_19_1 :J1_19_2 :J1_19_3"/>
    <junction id=":J1_26_0" type="internal" x="0.89" y="-11.99" incLanes=":J1_17_0 E1_0 E1_1 E1_2 E1_3" intLanes=":J1_0_0 :J1_1_0 :J1_1_1 :J1_1_2 :J1_1_3 :J1_7_0 :J1_7_1 :J1_7_2 :J1_7_3 :J1_11_0 :J1_19_0 :J1_19_1 :J1_19_2 :J1_19_3 :J1_23_0"/>
    <junction id=":J1_27_0" type="internal" x="-11.99" y="-0.89" incLanes=":J1_23_0 E3_0 E3_1 E3_2 E3_3" intLanes=":J1_1_0 :J1_1_1 :J1_1_2 :J1_1_3 :J1_5_0 :J1_6_0 :J1_7_0 :J1_7_1 :J1_7_2 :J1_7_3 :J1_13_0 :J1_13_1 :J1_13_2 :J1_13_3 :J1_17_0"/>

    <connection from="E0" to="-E2" fromLane="0" toLane="0" via=":J1_18_0" tl="J1" linkIndex="18" dir="r" state="o"/>
    <connection from="E0" to="-E3" fromLane="0" toLane="0" via=":J1_19_0" tl="J1" linkIndex="19" dir="s" state="o"/>
    <connection from="E0" to="-E3" fromLane="1" toLane="1" via=":J1_19_1" tl="J1" linkIndex="20" dir="s" state="o"/>
    <connection from="E0" to="-E3" fromLane="2" toLane="2" via=":J1_19_2" tl="J1" linkIndex="21" dir="s" state="o"/>
    <connection from="E0" to="-E3" fromLane="3" toLane="3" via=":J1_19_3" tl="J1" linkIndex="22" dir="s" state="o"/>
    <connection from="E0" to="-E1" fromLane="3" toLane="3" via=":J1_23_0" tl="J1" linkIndex="23" dir="l" state="o"/>
    <connection from="E1" to="-E0" fromLane="0" toLane="0" via=":J1_0_0" tl="J1" linkIndex="0" dir="r" state="O"/>
    <connection from="E1" to="-E2" fromLane="0" toLane="0" via=":J1_1_0" tl="J1" linkIndex="1" dir="s" state="O"/>
    <connection from="E1" to="-E2" fromLane="1" toLane="1" via=":J1_1_1" tl="J1" linkIndex="2" dir="s" state="O"/>
    <connection from="E1" to="-E2" fromLane="2" toLane="2" via=":J1_1_2" tl="J1" linkIndex="3" dir="s" state="O"/>
    <connection from="E1" to="-E2" fromLane="3" toLane="3" via=":J1_1_3" tl="J1" linkIndex="4" dir="s" state="O"/>
    <connection from="E1" to="-E3" fromLane="3" toLane="3" via=":J1_5_0" tl="J1" linkIndex="5" dir="l" state="o"/>
    <connection from="E2" to="-E3" fromLane="0" toLane="0" via=":J1_12_0" tl="J1" linkIndex="12" dir="r" state="O"/>
    <connection from="E2" to="-E1" fromLane="0" toLane="0" via=":J1_13_0" tl="J1" linkIndex="13" dir="s" state="O"/>
    <connection from="E2" to="-E1" fromLane="1" toLane="1" via=":J1_13_1" tl="J1" linkIndex="14" dir="s" state="O"/>
    <connection from="E2" to="-E1" fromLane="2" toLane="2" via=":J1_13_2" tl="J1" linkIndex="15" dir="s" state="O"/>
    <connection from="E2" to="-E1" fromLane="3" toLane="3" via=":J1_13_3" tl="J1" linkIndex="16" dir="s" state="O"/>
    <connection from="E2" to="-E0" fromLane="3" toLane="3" via=":J1_17_0" tl="J1" linkIndex="17" dir="l" state="o"/>
    <connection from="E3" to="-E1" fromLane="0" toLane="0" via=":J1_6_0" tl="J1" linkIndex="6" dir="r" state="o"/>
    <connection from="E3" to="-E0" fromLane="0" toLane="0" via=":J1_7_0" tl="J1" linkIndex="7" dir="s" state="o"/>
    <connection from="E3" to="-E0" fromLane="1" toLane="1" via=":J1_7_1" tl="J1" linkIndex="8" dir="s" state="o"/>
    <connection from="E3" to="-E0" fromLane="2" toLane="2" via=":J1_7_2" tl="J1" linkIndex="9" dir="s" state="o"/>
    <connection from="E3" to="-E0" fromLane="3" toLane="3" via=":J1_7_3" tl="J1" linkIndex="10" dir="s" state="o"/>
    <connection from="E3" to="-E2" fromLane="3" toLane="3" via=":J1_11_0" tl="J1" linkIndex="11" dir="l" state="o"/>

    <connection from=":J1_0" to="-E0" fromLane="0" toLane="0" dir="r" state="M"/>
    <connection from=":J1_1" to="-E2" fromLane="0" toLane="0" dir="s" state="M"/>
    <connection from=":J1_1" to="-E2" fromLane="1" toLane="1" dir="s" state="M"/>
    <connection from=":J1_1" to="-E2" fromLane="2" toLane="2" dir="s" state="M"/>
    <connection from=":J1_1" to="-E2" fromLane="3" toLane="3" dir="s" state="M"/>
    <connection from=":J1_5" to="-E3" fromLane="0" toLane="3" via=":J1_24_0" dir="l" state="m"/>
    <connection from=":J1_24" to="-E3" fromLane="0" toLane="3" dir="l" state="M"/>
    <connection from=":J1_6" to="-E1" fromLane="0" toLane="0" dir="r" state="M"/>
    <connection from=":J1_7" to="-E0" fromLane="0" toLane="0" dir="s" state="M"/>
    <connection from=":J1_7" to="-E0" fromLane="1" toLane="1" dir="s" state="M"/>
    <connection from=":J1_7" to="-E0" fromLane="2" toLane="2" dir="s" state="M"/>
    <connection from=":J1_7" to="-E0" fromLane="3" toLane="3" dir="s" state="M"/>
    <connection from=":J1_11" to="-E2" fromLane="0" toLane="3" via=":J1_25_0" dir="l" state="m"/>
    <connection from=":J1_25" to="-E2" fromLane="0" toLane="3" dir="l" state="M"/>
    <connection from=":J1_12" to="-E3" fromLane="0" toLane="0" dir="r" state="M"/>
    <connection from=":J1_13" to="-E1" fromLane="0" toLane="0" dir="s" state="M"/>
    <connection from=":J1_13" to="-E1" fromLane="1" toLane="1" dir="s" state="M"/>
    <connection from=":J1_13" to="-E1" fromLane="2" toLane="2" dir="s" state="M"/>
    <connection from=":J1_13" to="-E1" fromLane="3" toLane="3" dir="s" state="M"/>
    <connection from=":J1_17" to="-E0" fromLane="0" toLane="3" via=":J1_26_0" dir="l" state="m"/>
    <connection from=":J1_26" to="-E0" fromLane="0" toLane="3" dir="l" state="M"/>
    <connection from=":J1_18" to="-E2" fromLane="0" toLane="0" dir="r" state="M"/>
    <connection from=":J1_19" to="-E3" fromLane="0" toLane="0" dir="s" state="M"/>
    <connection from=":J1_19" to="-E3" fromLane="1" toLane="1" dir="s" state="M"/>
    <connection from=":J1_19" to="-E3" fromLane="2" toLane="2" dir="s" state="M"/>
    <connection from=":J1_19" to="-E3" fromLane="3" toLane="3" dir="s" state="M"/>
    <connection from=":J1_23" to="-E1" fromLane="0" toLane="3" via=":J1_27_0" dir="l" state="m"/>
    <connection from=":J1_27" to="-E1" fromLane="0" toLane="3" dir="l" state="M"/>

</net>
