<routes xmlns:xsi="http://www.w3.org/2001/XMLSchema-instance" xsi:noNamespaceSchemaLocation="http://sumo.dlr.de/xsd/routes_file.xsd">
    <!-- <vehicle id="0.0" depart="0.00" departPos="10" departSpeed="max">
        <route edges = "E0 -E3"/>
    </vehicle> -->
    <!-- <vehicle id="0.0" depart="0.00" departSpeed="max">
        <route edges = "E0 -E3"/>
    </vehicle>
    <vehicle id="1.0" depart="0.00" departSpeed="max">
        <route edges = "E1 -E2"/>
    </vehicle> -->
    <vType id="vtype0" accel="3.81" apparentDecel="4.5" emergencyDecel="8.35" length="5.0" width="1.8" maxSpeed="16.67" sigma="0.0" speedDev="0.2"/>

    <!-- 最初にランダムに配置 -->
    <flow id="0" color="1,1,0"  begin="0" end="1" period="0.001" type="vtype0"  from="E0" to="-E3" departPos="random" departLane="random" departSpeed="max"/>
    <flow id="1" color="1,1,0"  begin="0" end="1" period="0.001" type="vtype0"  from="E1" to="-E2" departPos="random" departLane="random" departSpeed="max"/>
    <flow id="2" color="1,1,0"  begin="0" end="1" period="0.001" type="vtype0"  from="-E1" departPos="random" departLane="random" departSpeed="max"/>
</routes>
