<?xml version="1.0" encoding="UTF-8"?>

<!-- generated on 2023-12-08 15:35:11 by Eclipse SUMO netedit Version 1.19.0
<configuration xmlns:xsi="http://www.w3.org/2001/XMLSchema-instance" xsi:noNamespaceSchemaLocation="http://sumo.dlr.de/xsd/neteditConfiguration.xsd">

    <input>
        <sumo-net-file value="/home/yuki/omnetpp-5.4.1/OpenCV2X/scenarios/manhattan/myroad/6lane.net.xml"/>
    </input>

    <output>
        <tls-file value="/home/yuki/omnetpp-5.4.1/OpenCV2X/scenarios/manhattan/myroad/6lane.tll.xml"/>
    </output>

    <processing>
        <geometry.min-radius.fix.railways value="false"/>
        <geometry.max-grade.fix value="false"/>
        <offset.disable-normalization value="true"/>
        <lefthand value="0"/>
    </processing>

    <junctions>
        <no-turnarounds value="true"/>
        <junctions.corner-detail value="5"/>
        <junctions.limit-turn-speed value="-1.00"/>
        <rectangular-lane-cut value="0"/>
    </junctions>

    <pedestrian>
        <walkingareas value="0"/>
    </pedestrian>

</configuration>
-->

<additional xmlns:xsi="http://www.w3.org/2001/XMLSchema-instance" xsi:noNamespaceSchemaLocation="http://sumo.dlr.de/xsd/additional_file.xsd">
    <poly id="0"  type="building" color="gray" fill="1" layer="0.00" shape="17.000000,17.000000 1000.000000,17.000000 1000.000000,1000.000000 17.000000,1000.000000 17.000000,17.000000"/>
    <poly id="1"  type="building" color="gray" fill="1" layer="0.00" shape="-1000.00000,17.000000 -17.0000000,17.000000 -17.0000000,1000.000000 -1000.000000,1000.000000 -1000.000000,17.000000"/>
    <poly id="2"  type="building" color="gray" fill="1" layer="0.00" shape="-17.000000,-17.000000 -1000.000000,-17.000000 -1000.000000,-1000.000000 -17.000000,-1000.000000 -17.000000,-17.000000"/>
    <poly id="3"  type="building" color="gray" fill="1" layer="0.00" shape="1000.00000,-17.000000 17.0000000,-17.000000 17.0000000,-1000.000000 1000.000000,-1000.000000 1000.000000,-17.000000"/>
</additional>
