<net version="1.9" junctionCornerDetail="5" limitTurnSpeed="5.50" xmlns:xsi="http://www.w3.org/2001/XMLSchema-instance" xsi:noNamespaceSchemaLocation="http://sumo.dlr.de/xsd/net_file.xsd">

    <location netOffset="0.00,0.00" convBoundary="-5.10,0.00,400.00,0.00" origBoundary="-10000000000.00,-10000000000.00,10000000000.00,10000000000.00" projParameter="!"/>

    <edge id="main" from="J0" to="J1" priority="-1">
        <lane id="main_0" index="0" speed="30.00" length="405.10" shape="-5.10,-8.00 400.00,-8.00"/>
        <lane id="main_1" index="1" speed="30.00" length="405.10" shape="-5.10,-4.80 400.00,-4.80"/>
        <lane id="main_2" index="2" speed="30.00" length="405.10" shape="-5.10,-1.60 400.00,-1.60"/>
    </edge>

    <junction id="J0" type="dead_end" x="-5.10" y="0.00" incLanes="" intLanes="" shape="-5.10,0.00 -5.10,-9.60"/>
    <junction id="J1" type="dead_end" x="400.00" y="0.00" incLanes="main_0 main_1 main_2" intLanes="" shape="400.00,-9.60 400.00,0.00"/>

</net>