<?xml version="1.0" encoding="UTF-8"?>

<!-- generated on Sun 03 Mar 2019 01:03:55 PM UTC by Eclipse SUMO netedit Version 1.0.1
<configuration xmlns:xsi="http://www.w3.org/2001/XMLSchema-instance" xsi:noNamespaceSchemaLocation="http://sumo.dlr.de/xsd/netconvertConfiguration.xsd">

    <input>
        <sumo-net-file value="/home/veins/cs6318Lab/sumo/MySUMOFile.net.xml"/>
    </input>

    <output>
        <output-file value="/home/veins/cs6318Lab/sumo/manhattanGrid.net.xml"/>
    </output>

    <processing>
        <offset.disable-normalization value="true"/>
        <lefthand value="false"/>
    </processing>

    <junctions>
        <no-turnarounds value="true"/>
        <junctions.corner-detail value="5"/>
        <junctions.limit-turn-speed value="5.5"/>
        <rectangular-lane-cut value="false"/>
    </junctions>

    <pedestrian>
        <walkingareas value="false"/>
    </pedestrian>

</configuration>
-->

<net version="1.0" junctionCornerDetail="5" limitTurnSpeed="5.50" xmlns:xsi="http://www.w3.org/2001/XMLSchema-instance" xsi:noNamespaceSchemaLocation="http://sumo.dlr.de/xsd/net_file.xsd">

    <location netOffset="0.00,0.00" convBoundary="-100.00,-100.00,850.00,1399.00" origBoundary="0.00,0.00,1250.00,2165.00" projParameter="+proj=tmerc +lat_0=48.78407 +lon_0=11.47258 +ellps=WGS84 +datum=WGS84 +units=m +no_defs"/>

    <edge id=":A0_0" function="internal">
        <lane id=":A0_0_0" index="0" speed="6.81" length="9.89" width="3.00" shape="-5.25,11.00 -5.61,8.16 -6.69,6.12 -8.48,4.91 -11.00,4.50"/>
    </edge>
    <edge id=":A0_1" function="internal">
        <lane id=":A0_1_0" index="0" speed="13.89" length="22.01" width="3.00" shape="-5.25,11.00 -4.50,-11.00"/>
        <lane id=":A0_1_1" index="1" speed="13.89" length="22.01" width="3.00" shape="-1.75,11.00 -1.50,-11.00"/>
    </edge>
    <edge id=":A0_3" function="internal">
        <lane id=":A0_3_0" index="0" speed="9.55" length="7.33" width="3.50" shape="-1.75,11.00 -0.95,5.42 -0.08,3.97"/>
    </edge>
    <edge id=":A0_14" function="internal">
        <lane id=":A0_14_0" index="0" speed="9.55" length="13.23" width="3.50" shape="-0.08,3.97 1.44,1.44 5.42,-0.95 11.00,-1.75"/>
    </edge>
    <edge id=":A0_4" function="internal">
        <lane id=":A0_4_0" index="0" speed="6.62" length="9.27" width="3.50" shape="11.00,5.25 8.48,5.61 6.69,6.69 5.61,8.48 5.25,11.00"/>
    </edge>
    <edge id=":A0_5" function="internal">
        <lane id=":A0_5_0" index="0" speed="13.89" length="22.01" width="3.00" shape="11.00,5.25 -11.00,4.50"/>
        <lane id=":A0_5_1" index="1" speed="13.89" length="22.01" width="3.00" shape="11.00,1.75 -11.00,1.50"/>
    </edge>
    <edge id=":A0_7" function="internal">
        <lane id=":A0_7_0" index="0" speed="9.51" length="20.36" width="3.00" shape="11.00,1.75 5.53,0.95 1.62,-1.44 -0.72,-5.42 -1.50,-11.00"/>
    </edge>
    <edge id=":A0_8" function="internal">
        <lane id=":A0_8_0" index="0" speed="6.76" length="9.89" width="3.50" shape="4.50,-11.00 4.91,-8.48 6.12,-6.69 8.16,-5.61 11.00,-5.25"/>
    </edge>
    <edge id=":A0_9" function="internal">
        <lane id=":A0_9_0" index="0" speed="13.89" length="22.01" width="3.50" shape="4.50,-11.00 5.25,11.00"/>
        <lane id=":A0_9_1" index="1" speed="13.89" length="22.01" width="3.50" shape="1.50,-11.00 1.75,11.00"/>
    </edge>
    <edge id=":A0_11" function="internal">
        <lane id=":A0_11_0" index="0" speed="13.89" length="22.01" width="3.50" shape="-11.00,-4.50 11.00,-5.25"/>
        <lane id=":A0_11_1" index="1" speed="13.89" length="22.01" width="3.50" shape="-11.00,-1.50 11.00,-1.75"/>
    </edge>
    <edge id=":A0_13" function="internal">
        <lane id=":A0_13_0" index="0" speed="9.47" length="20.36" width="3.50" shape="-11.00,-1.50 -5.42,-0.72 -1.44,1.62 0.95,5.53 1.75,11.00"/>
    </edge>
    <edge id=":A1_0" function="internal">
        <lane id=":A1_0_0" index="0" speed="6.81" length="9.89" width="3.00" shape="-5.25,444.00 -5.61,441.16 -6.69,439.12 -8.48,437.91 -11.00,437.50"/>
    </edge>
    <edge id=":A1_1" function="internal">
        <lane id=":A1_1_0" index="0" speed="13.89" length="22.00" width="3.50" shape="-5.25,444.00 -5.25,422.00"/>
        <lane id=":A1_1_1" index="1" speed="13.89" length="22.00" width="3.50" shape="-1.75,444.00 -1.75,422.00"/>
    </edge>
    <edge id=":A1_3" function="internal">
        <lane id=":A1_3_0" index="0" speed="9.55" length="7.49" width="3.50" shape="-1.75,444.00 -0.95,438.42 0.00,436.83"/>
    </edge>
    <edge id=":A1_16" function="internal">
        <lane id=":A1_16_0" index="0" speed="9.55" length="13.08" width="3.50" shape="0.00,436.83 1.44,434.44 5.42,432.05 11.00,431.25"/>
    </edge>
    <edge id=":A1_4" function="internal">
        <lane id=":A1_4_0" index="0" speed="6.62" length="9.27" width="3.50" shape="11.00,438.25 8.48,438.61 6.69,439.69 5.61,441.48 5.25,444.00"/>
    </edge>
    <edge id=":A1_5" function="internal">
        <lane id=":A1_5_0" index="0" speed="13.89" length="22.01" width="3.00" shape="11.00,438.25 -11.00,437.50"/>
        <lane id=":A1_5_1" index="1" speed="13.89" length="22.01" width="3.00" shape="11.00,434.75 -11.00,434.50"/>
    </edge>
    <edge id=":A1_7" function="internal">
        <lane id=":A1_7_0" index="0" speed="9.55" length="20.56" width="3.50" shape="11.00,434.75 5.42,433.95 1.44,431.56 -0.95,427.58 -1.75,422.00"/>
    </edge>
    <edge id=":A1_8" function="internal">
        <lane id=":A1_8_0" index="0" speed="6.62" length="9.27" width="3.50" shape="5.25,422.00 5.61,424.52 6.69,426.31 8.48,427.39 11.00,427.75"/>
    </edge>
    <edge id=":A1_9" function="internal">
        <lane id=":A1_9_0" index="0" speed="13.89" length="22.00" width="3.50" shape="5.25,422.00 5.25,444.00"/>
        <lane id=":A1_9_1" index="1" speed="13.89" length="22.00" width="3.50" shape="1.75,422.00 1.75,444.00"/>
    </edge>
    <edge id=":A1_11" function="internal">
        <lane id=":A1_11_0" index="0" speed="9.51" length="7.35" width="3.00" shape="1.75,422.00 0.95,427.47 -0.00,429.03"/>
    </edge>
    <edge id=":A1_17" function="internal">
        <lane id=":A1_17_0" index="0" speed="9.51" length="13.01" width="3.00" shape="-0.00,429.03 -1.44,431.38 -5.42,433.72 -11.00,434.50"/>
    </edge>
    <edge id=":A1_12" function="internal">
        <lane id=":A1_12_0" index="0" speed="6.76" length="9.89" width="3.50" shape="-11.00,428.50 -8.48,428.09 -6.69,426.88 -5.61,424.84 -5.25,422.00"/>
    </edge>
    <edge id=":A1_13" function="internal">
        <lane id=":A1_13_0" index="0" speed="13.89" length="22.01" width="3.50" shape="-11.00,428.50 11.00,427.75"/>
        <lane id=":A1_13_1" index="1" speed="13.89" length="22.01" width="3.50" shape="-11.00,431.50 11.00,431.25"/>
    </edge>
    <edge id=":A1_15" function="internal">
        <lane id=":A1_15_0" index="0" speed="9.47" length="20.36" width="3.50" shape="-11.00,431.50 -5.42,432.28 -1.44,434.62 0.95,438.53 1.75,444.00"/>
    </edge>
    <edge id=":A2_0" function="internal">
        <lane id=":A2_0_0" index="0" speed="6.81" length="9.89" width="3.00" shape="-5.25,877.00 -5.61,874.16 -6.69,872.12 -8.48,870.91 -11.00,870.50"/>
    </edge>
    <edge id=":A2_1" function="internal">
        <lane id=":A2_1_0" index="0" speed="13.89" length="22.00" width="3.50" shape="-5.25,877.00 -5.25,855.00"/>
        <lane id=":A2_1_1" index="1" speed="13.89" length="22.00" width="3.50" shape="-1.75,877.00 -1.75,855.00"/>
    </edge>
    <edge id=":A2_3" function="internal">
        <lane id=":A2_3_0" index="0" speed="9.55" length="7.49" width="3.50" shape="-1.75,877.00 -0.95,871.42 -0.00,869.83"/>
    </edge>
    <edge id=":A2_16" function="internal">
        <lane id=":A2_16_0" index="0" speed="9.55" length="13.08" width="3.50" shape="-0.00,869.83 1.44,867.44 5.42,865.05 11.00,864.25"/>
    </edge>
    <edge id=":A2_4" function="internal">
        <lane id=":A2_4_0" index="0" speed="6.62" length="9.27" width="3.50" shape="11.00,871.25 8.48,871.61 6.69,872.69 5.61,874.48 5.25,877.00"/>
    </edge>
    <edge id=":A2_5" function="internal">
        <lane id=":A2_5_0" index="0" speed="13.89" length="22.01" width="3.00" shape="11.00,871.25 -11.00,870.50"/>
        <lane id=":A2_5_1" index="1" speed="13.89" length="22.01" width="3.00" shape="11.00,867.75 -11.00,867.50"/>
    </edge>
    <edge id=":A2_7" function="internal">
        <lane id=":A2_7_0" index="0" speed="9.55" length="20.56" width="3.50" shape="11.00,867.75 5.42,866.95 1.44,864.56 -0.95,860.58 -1.75,855.00"/>
    </edge>
    <edge id=":A2_8" function="internal">
        <lane id=":A2_8_0" index="0" speed="6.62" length="9.27" width="3.50" shape="5.25,855.00 5.61,857.52 6.69,859.31 8.48,860.39 11.00,860.75"/>
    </edge>
    <edge id=":A2_9" function="internal">
        <lane id=":A2_9_0" index="0" speed="13.89" length="22.00" width="3.50" shape="5.25,855.00 5.25,877.00"/>
        <lane id=":A2_9_1" index="1" speed="13.89" length="22.00" width="3.50" shape="1.75,855.00 1.75,877.00"/>
    </edge>
    <edge id=":A2_11" function="internal">
        <lane id=":A2_11_0" index="0" speed="9.51" length="7.35" width="3.00" shape="1.75,855.00 0.95,860.47 -0.00,862.03"/>
    </edge>
    <edge id=":A2_17" function="internal">
        <lane id=":A2_17_0" index="0" speed="9.51" length="13.01" width="3.00" shape="-0.00,862.03 -1.44,864.38 -5.42,866.72 -11.00,867.50"/>
    </edge>
    <edge id=":A2_12" function="internal">
        <lane id=":A2_12_0" index="0" speed="6.76" length="9.89" width="3.50" shape="-11.00,861.50 -8.48,861.09 -6.69,859.88 -5.61,857.84 -5.25,855.00"/>
    </edge>
    <edge id=":A2_13" function="internal">
        <lane id=":A2_13_0" index="0" speed="13.89" length="22.01" width="3.50" shape="-11.00,861.50 11.00,860.75"/>
        <lane id=":A2_13_1" index="1" speed="13.89" length="22.01" width="3.50" shape="-11.00,864.50 11.00,864.25"/>
    </edge>
    <edge id=":A2_15" function="internal">
        <lane id=":A2_15_0" index="0" speed="9.47" length="20.36" width="3.50" shape="-11.00,864.50 -5.42,865.28 -1.44,867.62 0.95,871.53 1.75,877.00"/>
    </edge>
    <edge id=":A3_0" function="internal">
        <lane id=":A3_0_0" index="0" speed="13.89" length="22.01" width="3.50" shape="-4.50,1310.00 -5.25,1288.00"/>
        <lane id=":A3_0_1" index="1" speed="13.89" length="22.01" width="3.50" shape="-1.50,1310.00 -1.75,1288.00"/>
    </edge>
    <edge id=":A3_2" function="internal">
        <lane id=":A3_2_0" index="0" speed="9.47" length="7.21" width="3.50" shape="-1.50,1310.00 -0.72,1304.42 0.08,1303.07"/>
    </edge>
    <edge id=":A3_14" function="internal">
        <lane id=":A3_14_0" index="0" speed="9.47" length="13.16" width="3.50" shape="0.08,1303.07 1.62,1300.44 5.53,1298.05 11.00,1297.25"/>
    </edge>
    <edge id=":A3_3" function="internal">
        <lane id=":A3_3_0" index="0" speed="6.81" length="9.89" width="3.00" shape="11.00,1304.25 8.16,1304.61 6.12,1305.69 4.91,1307.48 4.50,1310.00"/>
    </edge>
    <edge id=":A3_4" function="internal">
        <lane id=":A3_4_0" index="0" speed="13.89" length="22.01" width="3.00" shape="11.00,1304.25 -11.00,1303.50"/>
        <lane id=":A3_4_1" index="1" speed="13.89" length="22.01" width="3.00" shape="11.00,1300.75 -11.00,1300.50"/>
    </edge>
    <edge id=":A3_6" function="internal">
        <lane id=":A3_6_0" index="0" speed="9.55" length="20.56" width="3.50" shape="11.00,1300.75 5.42,1299.95 1.44,1297.56 -0.95,1293.58 -1.75,1288.00"/>
    </edge>
    <edge id=":A3_7" function="internal">
        <lane id=":A3_7_0" index="0" speed="6.62" length="9.27" width="3.50" shape="5.25,1288.00 5.61,1290.52 6.69,1292.31 8.48,1293.39 11.00,1293.75"/>
    </edge>
    <edge id=":A3_8" function="internal">
        <lane id=":A3_8_0" index="0" speed="13.89" length="22.01" width="3.00" shape="5.25,1288.00 4.50,1310.00"/>
        <lane id=":A3_8_1" index="1" speed="13.89" length="22.01" width="3.00" shape="1.75,1288.00 1.50,1310.00"/>
    </edge>
    <edge id=":A3_10" function="internal">
        <lane id=":A3_10_0" index="0" speed="9.51" length="7.20" width="3.00" shape="1.75,1288.00 0.95,1293.47 0.08,1294.90"/>
    </edge>
    <edge id=":A3_15" function="internal">
        <lane id=":A3_15_0" index="0" speed="9.51" length="13.16" width="3.00" shape="0.08,1294.90 -1.44,1297.38 -5.42,1299.72 -11.00,1300.50"/>
    </edge>
    <edge id=":A3_11" function="internal">
        <lane id=":A3_11_0" index="0" speed="6.76" length="9.89" width="3.50" shape="-11.00,1294.50 -8.48,1294.09 -6.69,1292.88 -5.61,1290.84 -5.25,1288.00"/>
    </edge>
    <edge id=":A3_12" function="internal">
        <lane id=":A3_12_0" index="0" speed="13.89" length="22.01" width="3.50" shape="-11.00,1294.50 11.00,1293.75"/>
        <lane id=":A3_12_1" index="1" speed="13.89" length="22.01" width="3.50" shape="-11.00,1297.50 11.00,1297.25"/>
    </edge>
    <edge id=":B0_0" function="internal">
        <lane id=":B0_0_0" index="0" speed="6.62" length="9.27" width="3.50" shape="244.75,11.00 244.39,8.48 243.31,6.69 241.52,5.61 239.00,5.25"/>
    </edge>
    <edge id=":B0_1" function="internal">
        <lane id=":B0_1_0" index="0" speed="13.89" length="22.01" width="3.00" shape="244.75,11.00 245.50,-11.00"/>
        <lane id=":B0_1_1" index="1" speed="13.89" length="22.01" width="3.00" shape="248.25,11.00 248.50,-11.00"/>
    </edge>
    <edge id=":B0_3" function="internal">
        <lane id=":B0_3_0" index="0" speed="9.55" length="7.33" width="3.50" shape="248.25,11.00 249.05,5.42 249.92,3.97"/>
    </edge>
    <edge id=":B0_16" function="internal">
        <lane id=":B0_16_0" index="0" speed="9.55" length="13.23" width="3.50" shape="249.92,3.97 251.44,1.44 255.42,-0.95 261.00,-1.75"/>
    </edge>
    <edge id=":B0_4" function="internal">
        <lane id=":B0_4_0" index="0" speed="6.62" length="9.27" width="3.50" shape="261.00,5.25 258.48,5.61 256.69,6.69 255.61,8.48 255.25,11.00"/>
    </edge>
    <edge id=":B0_5" function="internal">
        <lane id=":B0_5_0" index="0" speed="13.89" length="22.00" width="3.50" shape="261.00,5.25 239.00,5.25"/>
        <lane id=":B0_5_1" index="1" speed="13.89" length="22.00" width="3.50" shape="261.00,1.75 239.00,1.75"/>
    </edge>
    <edge id=":B0_7" function="internal">
        <lane id=":B0_7_0" index="0" speed="9.51" length="20.36" width="3.00" shape="261.00,1.75 255.53,0.95 251.62,-1.44 249.28,-5.42 248.50,-11.00"/>
    </edge>
    <edge id=":B0_8" function="internal">
        <lane id=":B0_8_0" index="0" speed="6.76" length="9.89" width="3.50" shape="254.50,-11.00 254.91,-8.48 256.12,-6.69 258.16,-5.61 261.00,-5.25"/>
    </edge>
    <edge id=":B0_9" function="internal">
        <lane id=":B0_9_0" index="0" speed="13.89" length="22.01" width="3.50" shape="254.50,-11.00 255.25,11.00"/>
        <lane id=":B0_9_1" index="1" speed="13.89" length="22.01" width="3.50" shape="251.50,-11.00 251.75,11.00"/>
    </edge>
    <edge id=":B0_11" function="internal">
        <lane id=":B0_11_0" index="0" speed="9.47" length="7.21" width="3.50" shape="251.50,-11.00 250.72,-5.42 249.92,-4.07"/>
    </edge>
    <edge id=":B0_17" function="internal">
        <lane id=":B0_17_0" index="0" speed="9.47" length="13.16" width="3.50" shape="249.92,-4.07 248.38,-1.44 244.47,0.95 239.00,1.75"/>
    </edge>
    <edge id=":B0_12" function="internal">
        <lane id=":B0_12_0" index="0" speed="6.81" length="9.89" width="3.00" shape="239.00,-5.25 241.84,-5.61 243.88,-6.69 245.09,-8.48 245.50,-11.00"/>
    </edge>
    <edge id=":B0_13" function="internal">
        <lane id=":B0_13_0" index="0" speed="13.89" length="22.00" width="3.50" shape="239.00,-5.25 261.00,-5.25"/>
        <lane id=":B0_13_1" index="1" speed="13.89" length="22.00" width="3.50" shape="239.00,-1.75 261.00,-1.75"/>
    </edge>
    <edge id=":B0_15" function="internal">
        <lane id=":B0_15_0" index="0" speed="9.55" length="20.56" width="3.50" shape="239.00,-1.75 244.58,-0.95 248.56,1.44 250.95,5.42 251.75,11.00"/>
    </edge>
    <edge id=":B1_0" function="internal">
        <lane id=":B1_0_0" index="0" speed="6.62" length="9.27" width="3.50" shape="244.75,444.00 244.39,441.48 243.31,439.69 241.52,438.61 239.00,438.25"/>
    </edge>
    <edge id=":B1_1" function="internal">
        <lane id=":B1_1_0" index="0" speed="13.89" length="22.00" width="3.50" shape="244.75,444.00 244.75,422.00"/>
        <lane id=":B1_1_1" index="1" speed="13.89" length="22.00" width="3.50" shape="248.25,444.00 248.25,422.00"/>
    </edge>
    <edge id=":B1_3" function="internal">
        <lane id=":B1_3_0" index="0" speed="9.55" length="7.49" width="3.50" shape="248.25,444.00 249.05,438.42 250.00,436.83"/>
    </edge>
    <edge id=":B1_16" function="internal">
        <lane id=":B1_16_0" index="0" speed="9.55" length="13.08" width="3.50" shape="250.00,436.83 251.44,434.44 255.42,432.05 261.00,431.25"/>
    </edge>
    <edge id=":B1_4" function="internal">
        <lane id=":B1_4_0" index="0" speed="6.62" length="9.27" width="3.50" shape="261.00,438.25 258.48,438.61 256.69,439.69 255.61,441.48 255.25,444.00"/>
    </edge>
    <edge id=":B1_5" function="internal">
        <lane id=":B1_5_0" index="0" speed="13.89" length="22.00" width="3.50" shape="261.00,438.25 239.00,438.25"/>
        <lane id=":B1_5_1" index="1" speed="13.89" length="22.00" width="3.50" shape="261.00,434.75 239.00,434.75"/>
    </edge>
    <edge id=":B1_7" function="internal">
        <lane id=":B1_7_0" index="0" speed="9.55" length="20.56" width="3.50" shape="261.00,434.75 255.42,433.95 251.44,431.56 249.05,427.58 248.25,422.00"/>
    </edge>
    <edge id=":B1_8" function="internal">
        <lane id=":B1_8_0" index="0" speed="6.62" length="9.27" width="3.50" shape="255.25,422.00 255.61,424.52 256.69,426.31 258.48,427.39 261.00,427.75"/>
    </edge>
    <edge id=":B1_9" function="internal">
        <lane id=":B1_9_0" index="0" speed="13.89" length="22.00" width="3.50" shape="255.25,422.00 255.25,444.00"/>
        <lane id=":B1_9_1" index="1" speed="13.89" length="22.00" width="3.50" shape="251.75,422.00 251.75,444.00"/>
    </edge>
    <edge id=":B1_11" function="internal">
        <lane id=":B1_11_0" index="0" speed="9.55" length="7.49" width="3.50" shape="251.75,422.00 250.95,427.58 250.00,429.17"/>
    </edge>
    <edge id=":B1_17" function="internal">
        <lane id=":B1_17_0" index="0" speed="9.55" length="13.08" width="3.50" shape="250.00,429.17 248.56,431.56 244.58,433.95 239.00,434.75"/>
    </edge>
    <edge id=":B1_12" function="internal">
        <lane id=":B1_12_0" index="0" speed="6.62" length="9.27" width="3.50" shape="239.00,427.75 241.52,427.39 243.31,426.31 244.39,424.52 244.75,422.00"/>
    </edge>
    <edge id=":B1_13" function="internal">
        <lane id=":B1_13_0" index="0" speed="13.89" length="22.00" width="3.50" shape="239.00,427.75 261.00,427.75"/>
        <lane id=":B1_13_1" index="1" speed="13.89" length="22.00" width="3.50" shape="239.00,431.25 261.00,431.25"/>
    </edge>
    <edge id=":B1_15" function="internal">
        <lane id=":B1_15_0" index="0" speed="9.55" length="20.56" width="3.50" shape="239.00,431.25 244.58,432.05 248.56,434.44 250.95,438.42 251.75,444.00"/>
    </edge>
    <edge id=":B2_0" function="internal">
        <lane id=":B2_0_0" index="0" speed="6.62" length="9.27" width="3.50" shape="244.75,877.00 244.39,874.48 243.31,872.69 241.52,871.61 239.00,871.25"/>
    </edge>
    <edge id=":B2_1" function="internal">
        <lane id=":B2_1_0" index="0" speed="13.89" length="22.00" width="3.50" shape="244.75,877.00 244.75,855.00"/>
        <lane id=":B2_1_1" index="1" speed="13.89" length="22.00" width="3.50" shape="248.25,877.00 248.25,855.00"/>
    </edge>
    <edge id=":B2_3" function="internal">
        <lane id=":B2_3_0" index="0" speed="9.55" length="7.49" width="3.50" shape="248.25,877.00 249.05,871.42 250.00,869.83"/>
    </edge>
    <edge id=":B2_16" function="internal">
        <lane id=":B2_16_0" index="0" speed="9.55" length="13.08" width="3.50" shape="250.00,869.83 251.44,867.44 255.42,865.05 261.00,864.25"/>
    </edge>
    <edge id=":B2_4" function="internal">
        <lane id=":B2_4_0" index="0" speed="6.62" length="9.27" width="3.50" shape="261.00,871.25 258.48,871.61 256.69,872.69 255.61,874.48 255.25,877.00"/>
    </edge>
    <edge id=":B2_5" function="internal">
        <lane id=":B2_5_0" index="0" speed="13.89" length="22.00" width="3.50" shape="261.00,871.25 239.00,871.25"/>
        <lane id=":B2_5_1" index="1" speed="13.89" length="22.00" width="3.50" shape="261.00,867.75 239.00,867.75"/>
    </edge>
    <edge id=":B2_7" function="internal">
        <lane id=":B2_7_0" index="0" speed="9.55" length="20.56" width="3.50" shape="261.00,867.75 255.42,866.95 251.44,864.56 249.05,860.58 248.25,855.00"/>
    </edge>
    <edge id=":B2_8" function="internal">
        <lane id=":B2_8_0" index="0" speed="6.62" length="9.27" width="3.50" shape="255.25,855.00 255.61,857.52 256.69,859.31 258.48,860.39 261.00,860.75"/>
    </edge>
    <edge id=":B2_9" function="internal">
        <lane id=":B2_9_0" index="0" speed="13.89" length="22.00" width="3.50" shape="255.25,855.00 255.25,877.00"/>
        <lane id=":B2_9_1" index="1" speed="13.89" length="22.00" width="3.50" shape="251.75,855.00 251.75,877.00"/>
    </edge>
    <edge id=":B2_11" function="internal">
        <lane id=":B2_11_0" index="0" speed="9.55" length="7.49" width="3.50" shape="251.75,855.00 250.95,860.58 250.00,862.17"/>
    </edge>
    <edge id=":B2_17" function="internal">
        <lane id=":B2_17_0" index="0" speed="9.55" length="13.08" width="3.50" shape="250.00,862.17 248.56,864.56 244.58,866.95 239.00,867.75"/>
    </edge>
    <edge id=":B2_12" function="internal">
        <lane id=":B2_12_0" index="0" speed="6.62" length="9.27" width="3.50" shape="239.00,860.75 241.52,860.39 243.31,859.31 244.39,857.52 244.75,855.00"/>
    </edge>
    <edge id=":B2_13" function="internal">
        <lane id=":B2_13_0" index="0" speed="13.89" length="22.00" width="3.50" shape="239.00,860.75 261.00,860.75"/>
        <lane id=":B2_13_1" index="1" speed="13.89" length="22.00" width="3.50" shape="239.00,864.25 261.00,864.25"/>
    </edge>
    <edge id=":B2_15" function="internal">
        <lane id=":B2_15_0" index="0" speed="9.55" length="20.56" width="3.50" shape="239.00,864.25 244.58,865.05 248.56,867.44 250.95,871.42 251.75,877.00"/>
    </edge>
    <edge id=":B3_0" function="internal">
        <lane id=":B3_0_0" index="0" speed="6.76" length="9.89" width="3.50" shape="245.50,1310.00 245.09,1307.48 243.88,1305.69 241.84,1304.61 239.00,1304.25"/>
    </edge>
    <edge id=":B3_1" function="internal">
        <lane id=":B3_1_0" index="0" speed="13.89" length="22.01" width="3.50" shape="245.50,1310.00 244.75,1288.00"/>
        <lane id=":B3_1_1" index="1" speed="13.89" length="22.01" width="3.50" shape="248.50,1310.00 248.25,1288.00"/>
    </edge>
    <edge id=":B3_3" function="internal">
        <lane id=":B3_3_0" index="0" speed="9.47" length="7.21" width="3.50" shape="248.50,1310.00 249.28,1304.42 250.08,1303.07"/>
    </edge>
    <edge id=":B3_16" function="internal">
        <lane id=":B3_16_0" index="0" speed="9.47" length="13.16" width="3.50" shape="250.08,1303.07 251.62,1300.44 255.53,1298.05 261.00,1297.25"/>
    </edge>
    <edge id=":B3_4" function="internal">
        <lane id=":B3_4_0" index="0" speed="6.81" length="9.89" width="3.00" shape="261.00,1304.25 258.16,1304.61 256.12,1305.69 254.91,1307.48 254.50,1310.00"/>
    </edge>
    <edge id=":B3_5" function="internal">
        <lane id=":B3_5_0" index="0" speed="13.89" length="22.00" width="3.50" shape="261.00,1304.25 239.00,1304.25"/>
        <lane id=":B3_5_1" index="1" speed="13.89" length="22.00" width="3.50" shape="261.00,1300.75 239.00,1300.75"/>
    </edge>
    <edge id=":B3_7" function="internal">
        <lane id=":B3_7_0" index="0" speed="9.55" length="20.56" width="3.50" shape="261.00,1300.75 255.42,1299.95 251.44,1297.56 249.05,1293.58 248.25,1288.00"/>
    </edge>
    <edge id=":B3_8" function="internal">
        <lane id=":B3_8_0" index="0" speed="6.62" length="9.27" width="3.50" shape="255.25,1288.00 255.61,1290.52 256.69,1292.31 258.48,1293.39 261.00,1293.75"/>
    </edge>
    <edge id=":B3_9" function="internal">
        <lane id=":B3_9_0" index="0" speed="13.89" length="22.01" width="3.00" shape="255.25,1288.00 254.50,1310.00"/>
        <lane id=":B3_9_1" index="1" speed="13.89" length="22.01" width="3.00" shape="251.75,1288.00 251.50,1310.00"/>
    </edge>
    <edge id=":B3_11" function="internal">
        <lane id=":B3_11_0" index="0" speed="9.55" length="7.33" width="3.50" shape="251.75,1288.00 250.95,1293.58 250.08,1295.03"/>
    </edge>
    <edge id=":B3_17" function="internal">
        <lane id=":B3_17_0" index="0" speed="9.55" length="13.23" width="3.50" shape="250.08,1295.03 248.56,1297.56 244.58,1299.95 239.00,1300.75"/>
    </edge>
    <edge id=":B3_12" function="internal">
        <lane id=":B3_12_0" index="0" speed="6.62" length="9.27" width="3.50" shape="239.00,1293.75 241.52,1293.39 243.31,1292.31 244.39,1290.52 244.75,1288.00"/>
    </edge>
    <edge id=":B3_13" function="internal">
        <lane id=":B3_13_0" index="0" speed="13.89" length="22.00" width="3.50" shape="239.00,1293.75 261.00,1293.75"/>
        <lane id=":B3_13_1" index="1" speed="13.89" length="22.00" width="3.50" shape="239.00,1297.25 261.00,1297.25"/>
    </edge>
    <edge id=":B3_15" function="internal">
        <lane id=":B3_15_0" index="0" speed="9.51" length="20.36" width="3.00" shape="239.00,1297.25 244.47,1298.05 248.38,1300.44 250.72,1304.42 251.50,1310.00"/>
    </edge>
    <edge id=":C0_0" function="internal">
        <lane id=":C0_0_0" index="0" speed="6.62" length="9.27" width="3.50" shape="494.75,11.00 494.39,8.48 493.31,6.69 491.52,5.61 489.00,5.25"/>
    </edge>
    <edge id=":C0_1" function="internal">
        <lane id=":C0_1_0" index="0" speed="13.89" length="22.01" width="3.00" shape="494.75,11.00 495.50,-11.00"/>
        <lane id=":C0_1_1" index="1" speed="13.89" length="22.01" width="3.00" shape="498.25,11.00 498.50,-11.00"/>
    </edge>
    <edge id=":C0_3" function="internal">
        <lane id=":C0_3_0" index="0" speed="9.55" length="7.33" width="3.50" shape="498.25,11.00 499.05,5.42 499.92,3.97"/>
    </edge>
    <edge id=":C0_16" function="internal">
        <lane id=":C0_16_0" index="0" speed="9.55" length="13.23" width="3.50" shape="499.92,3.97 501.44,1.44 505.42,-0.95 511.00,-1.75"/>
    </edge>
    <edge id=":C0_4" function="internal">
        <lane id=":C0_4_0" index="0" speed="6.62" length="9.27" width="3.50" shape="511.00,5.25 508.48,5.61 506.69,6.69 505.61,8.48 505.25,11.00"/>
    </edge>
    <edge id=":C0_5" function="internal">
        <lane id=":C0_5_0" index="0" speed="13.89" length="22.00" width="3.50" shape="511.00,5.25 489.00,5.25"/>
        <lane id=":C0_5_1" index="1" speed="13.89" length="22.00" width="3.50" shape="511.00,1.75 489.00,1.75"/>
    </edge>
    <edge id=":C0_7" function="internal">
        <lane id=":C0_7_0" index="0" speed="9.51" length="20.36" width="3.00" shape="511.00,1.75 505.53,0.95 501.62,-1.44 499.28,-5.42 498.50,-11.00"/>
    </edge>
    <edge id=":C0_8" function="internal">
        <lane id=":C0_8_0" index="0" speed="6.76" length="9.89" width="3.50" shape="504.50,-11.00 504.91,-8.48 506.12,-6.69 508.16,-5.61 511.00,-5.25"/>
    </edge>
    <edge id=":C0_9" function="internal">
        <lane id=":C0_9_0" index="0" speed="13.89" length="22.01" width="3.50" shape="504.50,-11.00 505.25,11.00"/>
        <lane id=":C0_9_1" index="1" speed="13.89" length="22.01" width="3.50" shape="501.50,-11.00 501.75,11.00"/>
    </edge>
    <edge id=":C0_11" function="internal">
        <lane id=":C0_11_0" index="0" speed="9.47" length="7.21" width="3.50" shape="501.50,-11.00 500.72,-5.42 499.92,-4.07"/>
    </edge>
    <edge id=":C0_17" function="internal">
        <lane id=":C0_17_0" index="0" speed="9.47" length="13.16" width="3.50" shape="499.92,-4.07 498.38,-1.44 494.47,0.95 489.00,1.75"/>
    </edge>
    <edge id=":C0_12" function="internal">
        <lane id=":C0_12_0" index="0" speed="6.81" length="9.89" width="3.00" shape="489.00,-5.25 491.84,-5.61 493.88,-6.69 495.09,-8.48 495.50,-11.00"/>
    </edge>
    <edge id=":C0_13" function="internal">
        <lane id=":C0_13_0" index="0" speed="13.89" length="22.00" width="3.50" shape="489.00,-5.25 511.00,-5.25"/>
        <lane id=":C0_13_1" index="1" speed="13.89" length="22.00" width="3.50" shape="489.00,-1.75 511.00,-1.75"/>
    </edge>
    <edge id=":C0_15" function="internal">
        <lane id=":C0_15_0" index="0" speed="9.55" length="20.56" width="3.50" shape="489.00,-1.75 494.58,-0.95 498.56,1.44 500.95,5.42 501.75,11.00"/>
    </edge>
    <edge id=":C1_0" function="internal">
        <lane id=":C1_0_0" index="0" speed="6.62" length="9.27" width="3.50" shape="494.75,444.00 494.39,441.48 493.31,439.69 491.52,438.61 489.00,438.25"/>
    </edge>
    <edge id=":C1_1" function="internal">
        <lane id=":C1_1_0" index="0" speed="13.89" length="22.00" width="3.50" shape="494.75,444.00 494.75,422.00"/>
        <lane id=":C1_1_1" index="1" speed="13.89" length="22.00" width="3.50" shape="498.25,444.00 498.25,422.00"/>
    </edge>
    <edge id=":C1_3" function="internal">
        <lane id=":C1_3_0" index="0" speed="9.55" length="7.49" width="3.50" shape="498.25,444.00 499.05,438.42 500.00,436.83"/>
    </edge>
    <edge id=":C1_16" function="internal">
        <lane id=":C1_16_0" index="0" speed="9.55" length="13.08" width="3.50" shape="500.00,436.83 501.44,434.44 505.42,432.05 511.00,431.25"/>
    </edge>
    <edge id=":C1_4" function="internal">
        <lane id=":C1_4_0" index="0" speed="6.62" length="9.27" width="3.50" shape="511.00,438.25 508.48,438.61 506.69,439.69 505.61,441.48 505.25,444.00"/>
    </edge>
    <edge id=":C1_5" function="internal">
        <lane id=":C1_5_0" index="0" speed="13.89" length="22.00" width="3.50" shape="511.00,438.25 489.00,438.25"/>