<configuration>
	<input>
		<net-file value="manhattan_grid.net.xml"/>
		<route-files value="manhattan_rand.rou.xml"/>
	</input>
</configuration>
